8gcy


 40 45  0  0  0  0  0  0  0  0999 V2000
    2.4627    9.6736   17.1580 O   0  0  0  0  0  0  0  0  0  0  0  0
    2.0252    9.4518   18.2768 C   0  0  0  0  0  0  0  0  0  0  0  0
    2.0478    8.2594   18.9988 N   0  0  0  0  0  0  0  0  0  0  0  0
    1.3503    8.3357   20.1657 C   0  0  0  0  0  0  0  0  0  0  0  0
    0.8629    9.5727   20.2979 C   0  0  0  0  0  0  0  0  0  0  0  0
   -0.1519   10.0850   21.1909 C   0  0  0  0  0  0  0  0  0  0  0  0
   -0.9506   11.0677   20.7231 C   0  0  0  0  0  0  0  0  0  0  0  0
   -0.8394   11.5803   19.3540 C   0  0  0  0  0  0  0  0  0  0  0  0
    0.2508   11.2971   18.6101 C   0  0  0  0  0  0  0  0  0  0  0  0
    1.3622   10.4822   19.1924 C   0  0  0  0  0  0  0  0  0  0  0  0
    2.5653    7.0311   18.5876 C   0  0  0  0  0  0  0  0  0  0  0  0
    1.9168    5.8391   18.9199 C   0  0  0  0  0  0  0  0  0  0  0  0
    2.4304    4.6000   18.5092 C   0  0  0  0  0  0  0  0  0  0  0  0
    3.6097    4.4996   17.7551 C   0  0  0  0  0  0  0  0  0  0  0  0
    4.2440    5.7197   17.4510 C   0  0  0  0  0  0  0  0  0  0  0  0
    3.7494    6.9677   17.8538 C   0  0  0  0  0  0  0  0  0  0  0  0
    5.5281    5.6787   16.6464 C   0  0  0  0  0  0  0  0  0  0  0  0
    5.9985    4.2491   16.2566 C   0  0  0  0  0  0  0  0  0  0  0  0
    5.2567    4.4181   14.9063 C   0  0  0  0  0  0  0  0  0  0  0  0
    5.9532    3.8698   13.6775 C   0  0  0  0  0  0  0  0  0  0  0  0
    5.3445    5.9498   15.1265 C   0  0  0  0  0  0  0  0  0  0  0  0
    6.6124    6.5420   17.3178 C   0  0  0  0  0  0  0  0  0  0  0  0
    7.0939    7.6680   16.8418 N   0  0  0  0  0  0  0  0  0  0  0  0
    8.0221    8.1345   17.7413 N   0  0  0  0  0  0  0  0  0  0  0  0
    8.0763    7.2772   18.7353 C   0  0  0  0  0  0  0  0  0  0  0  0
    7.2008    6.2430   18.5205 N   0  0  0  0  0  0  0  0  0  0  0  0
    6.9545    5.0990   19.3683 C   0  0  0  0  0  0  0  0  0  0  0  0
   -0.2912    9.4998   22.5453 C   0  0  0  0  0  0  0  0  0  0  0  0
   -0.8789    8.2744   22.4979 F   0  0  0  0  0  0  0  0  0  0  0  0
    0.9198    9.3259   23.1406 F   0  0  0  0  0  0  0  0  0  0  0  0
   -1.0287   10.2397   23.4105 F   0  0  0  0  0  0  0  0  0  0  0  0
   -1.9541   12.4235   18.8611 C   0  0  0  0  0  0  0  0  0  0  0  0
   -3.2852   11.8390   19.1382 N   0  0  0  0  0  0  0  0  0  0  0  0
   -4.1259   12.7520   20.0006 C   0  0  0  0  0  0  0  0  0  0  0  0
   -5.4339   12.0475   20.3653 C   0  0  0  0  0  0  0  0  0  0  0  0
   -6.3127   12.9629   21.2152 C   0  0  0  0  0  0  0  0  0  0  0  0
   -6.1834   11.5958   19.1064 C   0  0  0  0  0  0  0  0  0  0  0  0
   -5.2956   10.7352   18.2130 C   0  0  0  0  0  0  0  0  0  0  0  0
   -3.9937   11.4413   17.8659 C   0  0  0  0  0  0  0  0  0  0  0  0
   -3.1369   10.9745   19.6781 H   0  0  0  0  0  0  0  0  0  0  0  0
  1  2  2  0  0  0
  2  3  1  0  0  0
  2 10  1  0  0  0
  3 11  1  0  0  0
  3  4  1  0  0  0
 11 12  2  0  0  0
 11 16  1  0  0  0
 12 13  1  0  0  0
 13 14  2  0  0  0
 14 15  1  0  0  0
 17 15  1  0  0  0
 15 16  2  0  0  0
 17 22  1  0  0  0
 17 18  1  0  0  0
 17 21  1  0  0  0
 22 23  2  0  0  0
 22 26  1  0  0  0
 23 24  1  0  0  0
 24 25  2  0  0  0
 25 26  1  0  0  0
 26 27  1  0  0  0
 18 19  1  0  0  0
 19 20  1  0  0  0
 19 21  1  0  0  0
  4  5  2  0  0  0
  5  6  1  0  0  0
  5 10  1  0  0  0
  6 28  1  0  0  0
  6  7  2  0  0  0
 28 29  1  0  0  0
 28 30  1  0  0  0
 28 31  1  0  0  0
  7  8  1  0  0  0
  8 32  1  0  0  0
  8  9  2  0  0  0
 32 33  1  0  0  0
 33 34  1  0  0  0
 33 39  1  0  0  0
 34 35  1  0  0  0
 35 36  1  0  0  0
 35 37  1  0  0  0
 37 38  1  0  0  0
 38 39  1  0  0  0
  9 10  1  0  0  0
 33 40  1  0  0  0
M  CHG 1  33   1
M  END
> <minimizedAffinity>
-10.56762

$$$$
8gcy


 40 45  0  0  0  0  0  0  0  0999 V2000
    2.3867    9.3513   17.0870 O   0  0  0  0  0  0  0  0  0  0  0  0
    2.0083    9.1733   18.2348 C   0  0  0  0  0  0  0  0  0  0  0  0
    2.0017    7.9919   18.9750 N   0  0  0  0  0  0  0  0  0  0  0  0
    1.3863    8.1287   20.1818 C   0  0  0  0  0  0  0  0  0  0  0  0
    0.9873    9.3961   20.3226 C   0  0  0  0  0  0  0  0  0  0  0  0
    0.0660    9.9845   21.2684 C   0  0  0  0  0  0  0  0  0  0  0  0
   -0.6974   11.0099   20.8343 C   0  0  0  0  0  0  0  0  0  0  0  0
   -0.6417   11.4955   19.4521 C   0  0  0  0  0  0  0  0  0  0  0  0
    0.3788   11.1329   18.6463 C   0  0  0  0  0  0  0  0  0  0  0  0
    1.4714   10.2565   19.1719 C   0  0  0  0  0  0  0  0  0  0  0  0
    2.4134    6.7274   18.5539 C   0  0  0  0  0  0  0  0  0  0  0  0
    1.5739    5.6204   18.7017 C   0  0  0  0  0  0  0  0  0  0  0  0
    1.9802    4.3459   18.2798 C   0  0  0  0  0  0  0  0  0  0  0  0
    3.2378    4.1237   17.6976 C   0  0  0  0  0  0  0  0  0  0  0  0
    4.0625    5.2589   17.5776 C   0  0  0  0  0  0  0  0  0  0  0  0
    3.6772    6.5401   17.9952 C   0  0  0  0  0  0  0  0  0  0  0  0
    5.4381    5.0837   16.9650 C   0  0  0  0  0  0  0  0  0  0  0  0
    5.6416    3.7383   16.2130 C   0  0  0  0  0  0  0  0  0  0  0  0
    5.2411    4.4591   14.9007 C   0  0  0  0  0  0  0  0  0  0  0  0
    6.0263    4.0901   13.6584 C   0  0  0  0  0  0  0  0  0  0  0  0
    5.6269    5.7909   15.5934 C   0  0  0  0  0  0  0  0  0  0  0  0
    6.5333    5.4038   17.9993 C   0  0  0  0  0  0  0  0  0  0  0  0
    6.9394    4.5981   18.9544 N   0  0  0  0  0  0  0  0  0  0  0  0
    7.9366    5.2439   19.6450 N   0  0  0  0  0  0  0  0  0  0  0  0
    8.1049    6.4221   19.0884 C   0  0  0  0  0  0  0  0  0  0  0  0
    7.2391    6.5797   18.0360 N   0  0  0  0  0  0  0  0  0  0  0  0
    7.1019    7.7240   17.1642 C   0  0  0  0  0  0  0  0  0  0  0  0
   -0.0232    9.4280   22.6390 C   0  0  0  0  0  0  0  0  0  0  0  0
   -0.6398   10.2944   23.4867 F   0  0  0  0  0  0  0  0  0  0  0  0
   -0.7498    8.2781   22.6643 F   0  0  0  0  0  0  0  0  0  0  0  0
    1.1705    9.1270   23.2084 F   0  0  0  0  0  0  0  0  0  0  0  0
   -1.7301   12.4016   19.0153 C   0  0  0  0  0  0  0  0  0  0  0  0
   -3.0126   11.6971   18.7936 N   0  0  0  0  0  0  0  0  0  0  0  0
   -4.1635   12.4106   19.4648 C   0  0  0  0  0  0  0  0  0  0  0  0
   -5.4369   11.5757   19.3176 C   0  0  0  0  0  0  0  0  0  0  0  0
   -6.6204   12.2911   19.9656 C   0  0  0  0  0  0  0  0  0  0  0  0
   -5.7289   11.2756   17.8427 C   0  0  0  0  0  0  0  0  0  0  0  0
   -4.5297   10.6215   17.1634 C   0  0  0  0  0  0  0  0  0  0  0  0
   -3.2676   11.4549   17.3256 C   0  0  0  0  0  0  0  0  0  0  0  0
   -2.9376   10.7711   19.2386 H   0  0  0  0  0  0  0  0  0  0  0  0
  1  2  2  0  0  0
  2  3  1  0  0  0
  2 10  1  0  0  0
  3 11  1  0  0  0
  3  4  1  0  0  0
 11 12  2  0  0  0
 11 16  1  0  0  0
 12 13  1  0  0  0
 13 14  2  0  0  0
 14 15  1  0  0  0
 17 15  1  0  0  0
 15 16  2  0  0  0
 17 22  1  0  0  0
 17 18  1  0  0  0
 17 21  1  0  0  0
 22 23  2  0  0  0
 22 26  1  0  0  0
 23 24  1  0  0  0
 24 25  2  0  0  0
 25 26  1  0  0  0
 26 27  1  0  0  0
 18 19  1  0  0  0
 19 20  1  0  0  0
 19 21  1  0  0  0
  4  5  2  0  0  0
  5  6  1  0  0  0
  5 10  1  0  0  0
  6 28  1  0  0  0
  6  7  2  0  0  0
 28 29  1  0  0  0
 28 30  1  0  0  0
 28 31  1  0  0  0
  7  8  1  0  0  0
  8 32  1  0  0  0
  8  9  2  0  0  0
 32 33  1  0  0  0
 33 34  1  0  0  0
 33 39  1  0  0  0
 34 35  1  0  0  0
 35 36  1  0  0  0
 35 37  1  0  0  0
 37 38  1  0  0  0
 38 39  1  0  0  0
  9 10  1  0  0  0
 33 40  1  0  0  0
M  CHG 1  33   1
M  END
> <minimizedAffinity>
-10.53562

$$$$
8gcy


 40 45  0  0  0  0  0  0  0  0999 V2000
    2.2298    9.4188   17.1148 O   0  0  0  0  0  0  0  0  0  0  0  0
    1.8803    9.2562   18.2739 C   0  0  0  0  0  0  0  0  0  0  0  0
    2.0651    8.1408   19.0896 N   0  0  0  0  0  0  0  0  0  0  0  0
    1.4294    8.2526   20.2885 C   0  0  0  0  0  0  0  0  0  0  0  0
    0.8260    9.4431   20.3486 C   0  0  0  0  0  0  0  0  0  0  0  0
   -0.1846    9.9319   21.2593 C   0  0  0  0  0  0  0  0  0  0  0  0
   -1.1046   10.7866   20.7638 C   0  0  0  0  0  0  0  0  0  0  0  0
   -1.1229   11.1835   19.3525 C   0  0  0  0  0  0  0  0  0  0  0  0
   -0.0525   10.9425   18.5662 C   0  0  0  0  0  0  0  0  0  0  0  0
    1.1672   10.2947   19.1415 C   0  0  0  0  0  0  0  0  0  0  0  0
    2.6820    6.9368   18.7494 C   0  0  0  0  0  0  0  0  0  0  0  0
    2.1716    5.7210   19.2111 C   0  0  0  0  0  0  0  0  0  0  0  0
    2.7857    4.5061   18.8726 C   0  0  0  0  0  0  0  0  0  0  0  0
    3.9320    4.4548   18.0646 C   0  0  0  0  0  0  0  0  0  0  0  0
    4.4268    5.6995   17.6295 C   0  0  0  0  0  0  0  0  0  0  0  0
    3.8303    6.9244   17.9585 C   0  0  0  0  0  0  0  0  0  0  0  0
    5.6690    5.7128   16.7607 C   0  0  0  0  0  0  0  0  0  0  0  0
    6.1983    4.3037   16.3722 C   0  0  0  0  0  0  0  0  0  0  0  0
    5.3810    4.4043   15.0592 C   0  0  0  0  0  0  0  0  0  0  0  0
    6.0443    3.8704   13.8059 C   0  0  0  0  0  0  0  0  0  0  0  0
    5.3942    5.9427   15.2478 C   0  0  0  0  0  0  0  0  0  0  0  0
    6.7358    6.6478   17.3604 C   0  0  0  0  0  0  0  0  0  0  0  0
    7.1111    7.8007   16.8540 N   0  0  0  0  0  0  0  0  0  0  0  0
    8.0632    8.3305   17.6914 N   0  0  0  0  0  0  0  0  0  0  0  0
    8.2372    7.4828   18.6800 C   0  0  0  0  0  0  0  0  0  0  0  0
    7.4190    6.3929   18.5225 N   0  0  0  0  0  0  0  0  0  0  0  0
    7.3031    5.2391   19.3846 C   0  0  0  0  0  0  0  0  0  0  0  0
   -0.1876    9.4590   22.6638 C   0  0  0  0  0  0  0  0  0  0  0  0
   -0.7593    8.2299   22.7719 F   0  0  0  0  0  0  0  0  0  0  0  0
    1.0763    9.3428   23.1538 F   0  0  0  0  0  0  0  0  0  0  0  0
   -0.8512   10.2624   23.5321 F   0  0  0  0  0  0  0  0  0  0  0  0
   -2.3437   11.8670   18.8639 C   0  0  0  0  0  0  0  0  0  0  0  0
   -2.6471   13.1086   19.6102 N   0  0  0  0  0  0  0  0  0  0  0  0
   -3.5374   12.8391   20.8014 C   0  0  0  0  0  0  0  0  0  0  0  0
   -3.9267   14.1651   21.4575 C   0  0  0  0  0  0  0  0  0  0  0  0
   -4.8053   13.9157   22.6815 C   0  0  0  0  0  0  0  0  0  0  0  0
   -2.6820   14.9735   21.8419 C   0  0  0  0  0  0  0  0  0  0  0  0
   -1.7601   15.1731   20.6430 C   0  0  0  0  0  0  0  0  0  0  0  0
   -1.3885   13.8493   19.9924 C   0  0  0  0  0  0  0  0  0  0  0  0
   -3.1756   13.7274   18.9787 H   0  0  0  0  0  0  0  0  0  0  0  0
  1  2  2  0  0  0
  2  3  1  0  0  0
  2 10  1  0  0  0
  3 11  1  0  0  0
  3  4  1  0  0  0
 11 12  2  0  0  0
 11 16  1  0  0  0
 12 13  1  0  0  0
 13 14  2  0  0  0
 14 15  1  0  0  0
 17 15  1  0  0  0
 15 16  2  0  0  0
 17 22  1  0  0  0
 17 18  1  0  0  0
 17 21  1  0  0  0
 22 23  2  0  0  0
 22 26  1  0  0  0
 23 24  1  0  0  0
 24 25  2  0  0  0
 25 26  1  0  0  0
 26 27  1  0  0  0
 18 19  1  0  0  0
 19 20  1  0  0  0
 19 21  1  0  0  0
  4  5  2  0  0  0
  5  6  1  0  0  0
  5 10  1  0  0  0
  6 28  1  0  0  0
  6  7  2  0  0  0
 28 29  1  0  0  0
 28 30  1  0  0  0
 28 31  1  0  0  0
  7  8  1  0  0  0
  8 32  1  0  0  0
  8  9  2  0  0  0
 32 33  1  0  0  0
 33 34  1  0  0  0
 33 39  1  0  0  0
 34 35  1  0  0  0
 35 36  1  0  0  0
 35 37  1  0  0  0
 37 38  1  0  0  0
 38 39  1  0  0  0
  9 10  1  0  0  0
 33 40  1  0  0  0
M  CHG 1  33   1
M  END
> <minimizedAffinity>
-9.98462

$$$$
8gcy


 40 45  0  0  0  0  0  0  0  0999 V2000
   -0.2344   13.2909   21.4663 O   0  0  0  0  0  0  0  0  0  0  0  0
   -0.9420   12.6923   20.6705 C   0  0  0  0  0  0  0  0  0  0  0  0
   -2.2902   12.3568   20.7865 N   0  0  0  0  0  0  0  0  0  0  0  0
   -2.7283   11.5709   19.7646 C   0  0  0  0  0  0  0  0  0  0  0  0
   -1.7213   11.3727   18.9092 C   0  0  0  0  0  0  0  0  0  0  0  0
   -1.5826   10.4120   17.8380 C   0  0  0  0  0  0  0  0  0  0  0  0
   -0.3475    9.9206   17.6020 C   0  0  0  0  0  0  0  0  0  0  0  0
    0.8128   10.2993   18.4141 C   0  0  0  0  0  0  0  0  0  0  0  0
    0.7468   11.3696   19.2340 C   0  0  0  0  0  0  0  0  0  0  0  0
   -0.5032   12.1894   19.2941 C   0  0  0  0  0  0  0  0  0  0  0  0
   -3.1370   12.6171   21.8640 C   0  0  0  0  0  0  0  0  0  0  0  0
   -2.6369   12.6572   23.1679 C   0  0  0  0  0  0  0  0  0  0  0  0
   -3.4818   12.9193   24.2565 C   0  0  0  0  0  0  0  0  0  0  0  0
   -4.8564   13.1485   24.0896 C   0  0  0  0  0  0  0  0  0  0  0  0
   -5.3277   13.0861   22.7640 C   0  0  0  0  0  0  0  0  0  0  0  0
   -4.5014   12.8231   21.6629 C   0  0  0  0  0  0  0  0  0  0  0  0
   -6.8058   13.3155   22.5175 C   0  0  0  0  0  0  0  0  0  0  0  0
   -7.4395   14.4313   23.3952 C   0  0  0  0  0  0  0  0  0  0  0  0
   -7.1775   15.4311   22.2402 C   0  0  0  0  0  0  0  0  0  0  0  0
   -8.2631   16.4528   21.9694 C   0  0  0  0  0  0  0  0  0  0  0  0
   -7.1219   14.2107   21.2862 C   0  0  0  0  0  0  0  0  0  0  0  0
   -7.5700   11.9787   22.5422 C   0  0  0  0  0  0  0  0  0  0  0  0
   -8.0712   11.4063   23.6134 N   0  0  0  0  0  0  0  0  0  0  0  0
   -8.6883   10.2458   23.2125 N   0  0  0  0  0  0  0  0  0  0  0  0
   -8.5424   10.1488   21.9104 C   0  0  0  0  0  0  0  0  0  0  0  0
   -7.8386   11.2235   21.4287 N   0  0  0  0  0  0  0  0  0  0  0  0
   -7.4652   11.4976   20.0599 C   0  0  0  0  0  0  0  0  0  0  0  0
   -2.7837    9.9910   17.0789 C   0  0  0  0  0  0  0  0  0  0  0  0
   -2.4447    9.4051   15.8994 F   0  0  0  0  0  0  0  0  0  0  0  0
   -3.5152    9.0754   17.7701 F   0  0  0  0  0  0  0  0  0  0  0  0
   -3.6409   10.9956   16.7695 F   0  0  0  0  0  0  0  0  0  0  0  0
    2.0341    9.4730   18.2650 C   0  0  0  0  0  0  0  0  0  0  0  0
    1.8387    8.0718   18.6996 N   0  0  0  0  0  0  0  0  0  0  0  0
    2.8165    7.1377   18.0247 C   0  0  0  0  0  0  0  0  0  0  0  0
    2.4875    5.6930   18.4054 C   0  0  0  0  0  0  0  0  0  0  0  0
    3.4809    4.7320   17.7557 C   0  0  0  0  0  0  0  0  0  0  0  0
    2.4806    5.5148   19.9281 C   0  0  0  0  0  0  0  0  0  0  0  0
    1.5428    6.5144   20.5977 C   0  0  0  0  0  0  0  0  0  0  0  0
    1.8724    7.9462   20.2035 C   0  0  0  0  0  0  0  0  0  0  0  0
    0.8968    7.7833   18.3986 H   0  0  0  0  0  0  0  0  0  0  0  0
  1  2  2  0  0  0
  2  3  1  0  0  0
  2 10  1  0  0  0
  3 11  1  0  0  0
  3  4  1  0  0  0
 11 12  2  0  0  0
 11 16  1  0  0  0
 12 13  1  0  0  0
 13 14  2  0  0  0
 14 15  1  0  0  0
 17 15  1  0  0  0
 15 16  2  0  0  0
 17 22  1  0  0  0
 17 18  1  0  0  0
 17 21  1  0  0  0
 22 23  2  0  0  0
 22 26  1  0  0  0
 23 24  1  0  0  0
 24 25  2  0  0  0
 25 26  1  0  0  0
 26 27  1  0  0  0
 18 19  1  0  0  0
 19 20  1  0  0  0
 19 21  1  0  0  0
  4  5  2  0  0  0
  5  6  1  0  0  0
  5 10  1  0  0  0
  6 28  1  0  0  0
  6  7  2  0  0  0
 28 29  1  0  0  0
 28 30  1  0  0  0
 28 31  1  0  0  0
  7  8  1  0  0  0
  8 32  1  0  0  0
  8  9  2  0  0  0
 32 33  1  0  0  0
 33 34  1  0  0  0
 33 39  1  0  0  0
 34 35  1  0  0  0
 35 36  1  0  0  0
 35 37  1  0  0  0
 37 38  1  0  0  0
 38 39  1  0  0  0
  9 10  1  0  0  0
 33 40  1  0  0  0
M  CHG 1  33   1
M  END
> <minimizedAffinity>
-9.67195

$$$$
8gcy


 40 45  0  0  0  0  0  0  0  0999 V2000
    2.1368    9.0213   17.5782 O   0  0  0  0  0  0  0  0  0  0  0  0
    2.0803    8.0606   18.3306 C   0  0  0  0  0  0  0  0  0  0  0  0
    1.5776    8.0017   19.6296 N   0  0  0  0  0  0  0  0  0  0  0  0
    1.7937    6.7965   20.2250 C   0  0  0  0  0  0  0  0  0  0  0  0
    2.4108    5.9898   19.3569 C   0  0  0  0  0  0  0  0  0  0  0  0
    3.0959    4.7354   19.5736 C   0  0  0  0  0  0  0  0  0  0  0  0
    4.1737    4.4764   18.8030 C   0  0  0  0  0  0  0  0  0  0  0  0
    4.6725    5.4326   17.8099 C   0  0  0  0  0  0  0  0  0  0  0  0
    3.9046    6.4739   17.4253 C   0  0  0  0  0  0  0  0  0  0  0  0
    2.5296    6.6383   17.9916 C   0  0  0  0  0  0  0  0  0  0  0  0
    1.0382    9.0493   20.3763 C   0  0  0  0  0  0  0  0  0  0  0  0
    0.9226    8.9469   21.7648 C   0  0  0  0  0  0  0  0  0  0  0  0
    0.3822    9.9963   22.5227 C   0  0  0  0  0  0  0  0  0  0  0  0
   -0.0663   11.1858   21.9279 C   0  0  0  0  0  0  0  0  0  0  0  0
    0.0522   11.2481   20.5260 C   0  0  0  0  0  0  0  0  0  0  0  0
    0.5864   10.2103   19.7500 C   0  0  0  0  0  0  0  0  0  0  0  0
   -0.4234   12.5035   19.8217 C   0  0  0  0  0  0  0  0  0  0  0  0
   -0.1083   13.8248   20.5779 C   0  0  0  0  0  0  0  0  0  0  0  0
    1.1892   13.9468   19.7390 C   0  0  0  0  0  0  0  0  0  0  0  0
    1.5583   15.3362   19.2605 C   0  0  0  0  0  0  0  0  0  0  0  0
    0.5246   13.0100   18.6983 C   0  0  0  0  0  0  0  0  0  0  0  0
   -1.8944   12.3550   19.3906 C   0  0  0  0  0  0  0  0  0  0  0  0
   -2.3066   12.0024   18.1939 N   0  0  0  0  0  0  0  0  0  0  0  0
   -3.6801   11.9677   18.2225 N   0  0  0  0  0  0  0  0  0  0  0  0
   -4.0596   12.3008   19.4354 C   0  0  0  0  0  0  0  0  0  0  0  0
   -2.9660   12.5584   20.2227 N   0  0  0  0  0  0  0  0  0  0  0  0
   -2.9473   12.9541   21.6124 C   0  0  0  0  0  0  0  0  0  0  0  0
    2.6149    3.8180   20.6335 C   0  0  0  0  0  0  0  0  0  0  0  0
    1.3532    3.3810   20.3759 F   0  0  0  0  0  0  0  0  0  0  0  0
    3.3976    2.7090   20.7263 F   0  0  0  0  0  0  0  0  0  0  0  0
    2.5821    4.3559   21.8782 F   0  0  0  0  0  0  0  0  0  0  0  0
    6.0224    5.1785   17.2534 C   0  0  0  0  0  0  0  0  0  0  0  0
    6.0261    5.0676   15.7776 N   0  0  0  0  0  0  0  0  0  0  0  0
    7.3928    5.3562   15.2006 C   0  0  0  0  0  0  0  0  0  0  0  0
    7.3116    5.3582   13.6730 C   0  0  0  0  0  0  0  0  0  0  0  0
    8.6886    5.6210   13.0670 C   0  0  0  0  0  0  0  0  0  0  0  0
    6.7359    4.0360   13.1524 C   0  0  0  0  0  0  0  0  0  0  0  0
    5.3900    3.7256   13.8001 C   0  0  0  0  0  0  0  0  0  0  0  0
    5.4805    3.7371   15.3185 C   0  0  0  0  0  0  0  0  0  0  0  0
    5.3908    5.7912   15.4117 H   0  0  0  0  0  0  0  0  0  0  0  0
  1  2  2  0  0  0
  2  3  1  0  0  0
  2 10  1  0  0  0
  3 11  1  0  0  0
  3  4  1  0  0  0
 11 12  2  0  0  0
 11 16  1  0  0  0
 12 13  1  0  0  0
 13 14  2  0  0  0
 14 15  1  0  0  0
 17 15  1  0  0  0
 15 16  2  0  0  0
 17 22  1  0  0  0
 17 18  1  0  0  0
 17 21  1  0  0  0
 22 23  2  0  0  0
 22 26  1  0  0  0
 23 24  1  0  0  0
 24 25  2  0  0  0
 25 26  1  0  0  0
 26 27  1  0  0  0
 18 19  1  0  0  0
 19 20  1  0  0  0
 19 21  1  0  0  0
  4  5  2  0  0  0
  5  6  1  0  0  0
  5 10  1  0  0  0
  6 28  1  0  0  0
  6  7  2  0  0  0
 28 29  1  0  0  0
 28 30  1  0  0  0
 28 31  1  0  0  0
  7  8  1  0  0  0
  8 32  1  0  0  0
  8  9  2  0  0  0
 32 33  1  0  0  0
 33 34  1  0  0  0
 33 39  1  0  0  0
 34 35  1  0  0  0
 35 36  1  0  0  0
 35 37  1  0  0  0
 37 38  1  0  0  0
 38 39  1  0  0  0
  9 10  1  0  0  0
 33 40  1  0  0  0
M  CHG 1  33   1
M  END
> <minimizedAffinity>
-9.06742

$$$$
8gcy


 40 45  0  0  0  0  0  0  0  0999 V2000
    2.3265    9.5283   17.1637 O   0  0  0  0  0  0  0  0  0  0  0  0
    1.9370    9.3331   18.3050 C   0  0  0  0  0  0  0  0  0  0  0  0
    1.9407    8.1447   19.0338 N   0  0  0  0  0  0  0  0  0  0  0  0
    1.3083    8.2597   20.2341 C   0  0  0  0  0  0  0  0  0  0  0  0
    0.8867    9.5190   20.3817 C   0  0  0  0  0  0  0  0  0  0  0  0
   -0.0559   10.0831   21.3214 C   0  0  0  0  0  0  0  0  0  0  0  0
   -0.8306   11.1000   20.8876 C   0  0  0  0  0  0  0  0  0  0  0  0
   -0.7659   11.5997   19.5108 C   0  0  0  0  0  0  0  0  0  0  0  0
    0.2703   11.2617   18.7145 C   0  0  0  0  0  0  0  0  0  0  0  0
    1.3707   10.3983   19.2454 C   0  0  0  0  0  0  0  0  0  0  0  0
    2.3784    6.8912   18.6060 C   0  0  0  0  0  0  0  0  0  0  0  0
    1.4793    5.8296   18.4783 C   0  0  0  0  0  0  0  0  0  0  0  0
    1.9115    4.5665   18.0477 C   0  0  0  0  0  0  0  0  0  0  0  0
    3.2546    4.3109   17.7306 C   0  0  0  0  0  0  0  0  0  0  0  0
    4.1346    5.3996   17.8847 C   0  0  0  0  0  0  0  0  0  0  0  0
    3.7240    6.6684   18.3161 C   0  0  0  0  0  0  0  0  0  0  0  0
    5.6014    5.1858   17.5672 C   0  0  0  0  0  0  0  0  0  0  0  0
    6.5314    6.3530   18.0029 C   0  0  0  0  0  0  0  0  0  0  0  0
    6.7940    5.5937   19.3283 C   0  0  0  0  0  0  0  0  0  0  0  0
    8.2130    5.6278   19.8587 C   0  0  0  0  0  0  0  0  0  0  0  0
    6.3600    4.2992   18.5947 C   0  0  0  0  0  0  0  0  0  0  0  0
    5.7772    4.7486   16.1010 C   0  0  0  0  0  0  0  0  0  0  0  0
    6.1918    3.5674   15.7018 N   0  0  0  0  0  0  0  0  0  0  0  0
    6.1927    3.5715   14.3277 N   0  0  0  0  0  0  0  0  0  0  0  0
    5.7793    4.7550   13.9347 C   0  0  0  0  0  0  0  0  0  0  0  0
    5.5001    5.5465   15.0199 N   0  0  0  0  0  0  0  0  0  0  0  0
    5.0227    6.9104   15.0235 C   0  0  0  0  0  0  0  0  0  0  0  0
   -0.1528    9.5120   22.6855 C   0  0  0  0  0  0  0  0  0  0  0  0
    1.0772    9.3388   23.2390 F   0  0  0  0  0  0  0  0  0  0  0  0
   -0.8420   10.3338   23.5226 F   0  0  0  0  0  0  0  0  0  0  0  0
   -0.7714    8.3069   22.7540 F   0  0  0  0  0  0  0  0  0  0  0  0
   -1.8636   12.4920   19.0690 C   0  0  0  0  0  0  0  0  0  0  0  0
   -3.1854   11.8263   19.0749 N   0  0  0  0  0  0  0  0  0  0  0  0
   -4.2265   12.6612   19.7844 C   0  0  0  0  0  0  0  0  0  0  0  0
   -5.5348   11.8739   19.8778 C   0  0  0  0  0  0  0  0  0  0  0  0
   -6.6109   12.7096   20.5678 C   0  0  0  0  0  0  0  0  0  0  0  0
   -6.0062   11.4262   18.4894 C   0  0  0  0  0  0  0  0  0  0  0  0
   -4.9163   10.6472   17.7597 C   0  0  0  0  0  0  0  0  0  0  0  0
   -3.6174   11.4352   17.6824 C   0  0  0  0  0  0  0  0  0  0  0  0
   -3.0892   10.9528   19.6122 H   0  0  0  0  0  0  0  0  0  0  0  0
  1  2  2  0  0  0
  2  3  1  0  0  0
  2 10  1  0  0  0
  3 11  1  0  0  0
  3  4  1  0  0  0
 11 12  2  0  0  0
 11 16  1  0  0  0
 12 13  1  0  0  0
 13 14  2  0  0  0
 14 15  1  0  0  0
 17 15  1  0  0  0
 15 16  2  0  0  0
 17 22  1  0  0  0
 17 18  1  0  0  0
 17 21  1  0  0  0
 22 23  2  0  0  0
 22 26  1  0  0  0
 23 24  1  0  0  0
 24 25  2  0  0  0
 25 26  1  0  0  0
 26 27  1  0  0  0
 18 19  1  0  0  0
 19 20  1  0  0  0
 19 21  1  0  0  0
  4  5  2  0  0  0
  5  6  1  0  0  0
  5 10  1  0  0  0
  6 28  1  0  0  0
  6  7  2  0  0  0
 28 29  1  0  0  0
 28 30  1  0  0  0
 28 31  1  0  0  0
  7  8  1  0  0  0
  8 32  1  0  0  0
  8  9  2  0  0  0
 32 33  1  0  0  0
 33 34  1  0  0  0
 33 39  1  0  0  0
 34 35  1  0  0  0
 35 36  1  0  0  0
 35 37  1  0  0  0
 37 38  1  0  0  0
 38 39  1  0  0  0
  9 10  1  0  0  0
 33 40  1  0  0  0
M  CHG 1  33   1
M  END
> <minimizedAffinity>
-8.93530

$$$$
8gcy


 40 45  0  0  0  0  0  0  0  0999 V2000
    1.5475    8.6769   21.9548 O   0  0  0  0  0  0  0  0  0  0  0  0
    0.7937    9.1296   21.1068 C   0  0  0  0  0  0  0  0  0  0  0  0
    0.8857    9.0304   19.7192 N   0  0  0  0  0  0  0  0  0  0  0  0
   -0.0588    9.7684   19.0735 C   0  0  0  0  0  0  0  0  0  0  0  0
   -0.8394   10.3614   19.9814 C   0  0  0  0  0  0  0  0  0  0  0  0
   -1.7867   11.4433   19.8333 C   0  0  0  0  0  0  0  0  0  0  0  0
   -1.9087   12.3060   20.8644 C   0  0  0  0  0  0  0  0  0  0  0  0
   -1.0930   12.1947   22.0775 C   0  0  0  0  0  0  0  0  0  0  0  0
   -0.4042   11.0617   22.3303 C   0  0  0  0  0  0  0  0  0  0  0  0
   -0.4950    9.9051   21.3857 C   0  0  0  0  0  0  0  0  0  0  0  0
    1.8868    8.3993   18.9808 C   0  0  0  0  0  0  0  0  0  0  0  0
    2.4844    9.0452   17.8957 C   0  0  0  0  0  0  0  0  0  0  0  0
    3.4924    8.4177   17.1488 C   0  0  0  0  0  0  0  0  0  0  0  0
    3.9420    7.1231   17.4512 C   0  0  0  0  0  0  0  0  0  0  0  0
    3.3076    6.4972   18.5417 C   0  0  0  0  0  0  0  0  0  0  0  0
    2.2969    7.1050   19.2989 C   0  0  0  0  0  0  0  0  0  0  0  0
    3.7416    5.0931   18.9138 C   0  0  0  0  0  0  0  0  0  0  0  0
    3.1946    4.5907   20.2795 C   0  0  0  0  0  0  0  0  0  0  0  0
    2.0150    3.9339   19.5183 C   0  0  0  0  0  0  0  0  0  0  0  0
    1.5724    2.5683   20.0030 C   0  0  0  0  0  0  0  0  0  0  0  0
    2.9051    3.9633   18.2497 C   0  0  0  0  0  0  0  0  0  0  0  0
    5.2644    4.9373   18.7446 C   0  0  0  0  0  0  0  0  0  0  0  0
    6.1654    5.2083   19.6617 N   0  0  0  0  0  0  0  0  0  0  0  0
    7.3987    4.9196   19.1288 N   0  0  0  0  0  0  0  0  0  0  0  0
    7.2087    4.4828   17.9043 C   0  0  0  0  0  0  0  0  0  0  0  0
    5.8700    4.4723   17.6048 N   0  0  0  0  0  0  0  0  0  0  0  0
    5.2408    4.0642   16.3695 C   0  0  0  0  0  0  0  0  0  0  0  0
   -2.5467   11.5760   18.5680 C   0  0  0  0  0  0  0  0  0  0  0  0
   -3.6836   12.3006   18.7462 F   0  0  0  0  0  0  0  0  0  0  0  0
   -1.8211   12.2218   17.6155 F   0  0  0  0  0  0  0  0  0  0  0  0
   -2.9309   10.4007   18.0105 F   0  0  0  0  0  0  0  0  0  0  0  0
   -1.0911   13.3598   22.9936 C   0  0  0  0  0  0  0  0  0  0  0  0
   -2.3868   13.5538   23.6821 N   0  0  0  0  0  0  0  0  0  0  0  0
   -3.1885   14.6716   23.0560 C   0  0  0  0  0  0  0  0  0  0  0  0
   -4.4523   14.9175   23.8820 C   0  0  0  0  0  0  0  0  0  0  0  0
   -5.2929   16.0261   23.2519 C   0  0  0  0  0  0  0  0  0  0  0  0
   -5.2742   13.6311   24.0240 C   0  0  0  0  0  0  0  0  0  0  0  0
   -4.4287   12.4942   24.5897 C   0  0  0  0  0  0  0  0  0  0  0  0
   -3.1698   12.2660   23.7668 C   0  0  0  0  0  0  0  0  0  0  0  0
   -2.1825   13.8413   24.6499 H   0  0  0  0  0  0  0  0  0  0  0  0
  1  2  2  0  0  0
  2  3  1  0  0  0
  2 10  1  0  0  0
  3 11  1  0  0  0
  3  4  1  0  0  0
 11 12  2  0  0  0
 11 16  1  0  0  0
 12 13  1  0  0  0
 13 14  2  0  0  0
 14 15  1  0  0  0
 17 15  1  0  0  0
 15 16  2  0  0  0
 17 22  1  0  0  0
 17 18  1  0  0  0
 17 21  1  0  0  0
 22 23  2  0  0  0
 22 26  1  0  0  0
 23 24  1  0  0  0
 24 25  2  0  0  0
 25 26  1  0  0  0
 26 27  1  0  0  0
 18 19  1  0  0  0
 19 20  1  0  0  0
 19 21  1  0  0  0
  4  5  2  0  0  0
  5  6  1  0  0  0
  5 10  1  0  0  0
  6 28  1  0  0  0
  6  7  2  0  0  0
 28 29  1  0  0  0
 28 30  1  0  0  0
 28 31  1  0  0  0
  7  8  1  0  0  0
  8 32  1  0  0  0
  8  9  2  0  0  0
 32 33  1  0  0  0
 33 34  1  0  0  0
 33 39  1  0  0  0
 34 35  1  0  0  0
 35 36  1  0  0  0
 35 37  1  0  0  0
 37 38  1  0  0  0
 38 39  1  0  0  0
  9 10  1  0  0  0
 33 40  1  0  0  0
M  CHG 1  33   1
M  END
> <minimizedAffinity>
-8.80414

$$$$
8gcy


 40 45  0  0  0  0  0  0  0  0999 V2000
    2.2751    8.5018   17.4882 O   0  0  0  0  0  0  0  0  0  0  0  0
    2.2322    7.5468   18.2488 C   0  0  0  0  0  0  0  0  0  0  0  0
    1.7630    7.5004   19.5608 N   0  0  0  0  0  0  0  0  0  0  0  0
    1.9869    6.2980   20.1592 C   0  0  0  0  0  0  0  0  0  0  0  0
    2.5762    5.4812   19.2812 C   0  0  0  0  0  0  0  0  0  0  0  0
    3.2587    4.2240   19.4891 C   0  0  0  0  0  0  0  0  0  0  0  0
    4.3144    3.9526   18.6927 C   0  0  0  0  0  0  0  0  0  0  0  0
    4.7933    4.8985   17.6801 C   0  0  0  0  0  0  0  0  0  0  0  0
    4.0222    5.9420   17.3080 C   0  0  0  0  0  0  0  0  0  0  0  0
    2.6635    6.1192   17.9086 C   0  0  0  0  0  0  0  0  0  0  0  0
    1.2498    8.5567   20.3136 C   0  0  0  0  0  0  0  0  0  0  0  0
    1.3101    8.5305   21.7092 C   0  0  0  0  0  0  0  0  0  0  0  0
    0.7971    9.5892   22.4731 C   0  0  0  0  0  0  0  0  0  0  0  0
    0.2024   10.7125   21.8780 C   0  0  0  0  0  0  0  0  0  0  0  0
    0.1461   10.6983   20.4709 C   0  0  0  0  0  0  0  0  0  0  0  0
    0.6499    9.6497   19.6892 C   0  0  0  0  0  0  0  0  0  0  0  0
   -0.4932   11.8792   19.7673 C   0  0  0  0  0  0  0  0  0  0  0  0
   -0.9042   11.6052   18.2933 C   0  0  0  0  0  0  0  0  0  0  0  0
   -2.3242   11.2456   18.7997 C   0  0  0  0  0  0  0  0  0  0  0  0
   -3.4865   11.7271   17.9554 C   0  0  0  0  0  0  0  0  0  0  0  0
   -2.0056   12.0693   20.0734 C   0  0  0  0  0  0  0  0  0  0  0  0
    0.3575   13.1480   19.9630 C   0  0  0  0  0  0  0  0  0  0  0  0
    0.0627   14.1481   20.7625 N   0  0  0  0  0  0  0  0  0  0  0  0
    1.0780   15.0691   20.6653 N   0  0  0  0  0  0  0  0  0  0  0  0
    1.9576   14.6003   19.8094 C   0  0  0  0  0  0  0  0  0  0  0  0
    1.5521   13.3805   19.3298 N   0  0  0  0  0  0  0  0  0  0  0  0
    2.2294   12.5334   18.3749 C   0  0  0  0  0  0  0  0  0  0  0  0
    2.7997    3.3173   20.5678 C   0  0  0  0  0  0  0  0  0  0  0  0
    3.7429    2.3841   20.8658 F   0  0  0  0  0  0  0  0  0  0  0  0
    2.5506    3.9977   21.7193 F   0  0  0  0  0  0  0  0  0  0  0  0
    1.6639    2.6309   20.2876 F   0  0  0  0  0  0  0  0  0  0  0  0
    6.1267    4.6316   17.0906 C   0  0  0  0  0  0  0  0  0  0  0  0
    6.1298    4.7105   15.6127 N   0  0  0  0  0  0  0  0  0  0  0  0
    7.4759    5.1456   15.0809 C   0  0  0  0  0  0  0  0  0  0  0  0
    7.3879    5.3382   13.5658 C   0  0  0  0  0  0  0  0  0  0  0  0
    8.7455    5.7522   13.0020 C   0  0  0  0  0  0  0  0  0  0  0  0
    6.8838    4.0636   12.8791 C   0  0  0  0  0  0  0  0  0  0  0  0
    5.5601    3.5989   13.4783 C   0  0  0  0  0  0  0  0  0  0  0  0
    5.6566    3.4213   14.9860 C   0  0  0  0  0  0  0  0  0  0  0  0
    5.4539    5.4386   15.3406 H   0  0  0  0  0  0  0  0  0  0  0  0
  1  2  2  0  0  0
  2  3  1  0  0  0
  2 10  1  0  0  0
  3 11  1  0  0  0
  3  4  1  0  0  0
 11 12  2  0  0  0
 11 16  1  0  0  0
 12 13  1  0  0  0
 13 14  2  0  0  0
 14 15  1  0  0  0
 17 15  1  0  0  0
 15 16  2  0  0  0
 17 22  1  0  0  0
 17 18  1  0  0  0
 17 21  1  0  0  0
 22 23  2  0  0  0
 22 26  1  0  0  0
 23 24  1  0  0  0
 24 25  2  0  0  0
 25 26  1  0  0  0
 26 27  1  0  0  0
 18 19  1  0  0  0
 19 20  1  0  0  0
 19 21  1  0  0  0
  4  5  2  0  0  0
  5  6  1  0  0  0
  5 10  1  0  0  0
  6 28  1  0  0  0
  6  7  2  0  0  0
 28 29  1  0  0  0
 28 30  1  0  0  0
 28 31  1  0  0  0
  7  8  1  0  0  0
  8 32  1  0  0  0
  8  9  2  0  0  0
 32 33  1  0  0  0
 33 34  1  0  0  0
 33 39  1  0  0  0
 34 35  1  0  0  0
 35 36  1  0  0  0
 35 37  1  0  0  0
 37 38  1  0  0  0
 38 39  1  0  0  0
  9 10  1  0  0  0
 33 40  1  0  0  0
M  CHG 1  33   1
M  END
> <minimizedAffinity>
-8.76789

$$$$
8gcy


 40 45  0  0  0  0  0  0  0  0999 V2000
    2.3279    8.5494   17.5687 O   0  0  0  0  0  0  0  0  0  0  0  0
    2.1604    7.5694   18.2784 C   0  0  0  0  0  0  0  0  0  0  0  0
    1.6576    7.5121   19.5774 N   0  0  0  0  0  0  0  0  0  0  0  0
    1.7315    6.2643   20.1174 C   0  0  0  0  0  0  0  0  0  0  0  0
    2.2469    5.4303   19.2098 C   0  0  0  0  0  0  0  0  0  0  0  0
    2.7798    4.0955   19.3657 C   0  0  0  0  0  0  0  0  0  0  0  0
    3.8176    3.7462   18.5760 C   0  0  0  0  0  0  0  0  0  0  0  0
    4.4232    4.6805   17.6222 C   0  0  0  0  0  0  0  0  0  0  0  0
    3.7825    5.8211   17.2898 C   0  0  0  0  0  0  0  0  0  0  0  0
    2.4380    6.1206   17.8735 C   0  0  0  0  0  0  0  0  0  0  0  0
    1.2473    8.5814   20.3738 C   0  0  0  0  0  0  0  0  0  0  0  0
    1.1573    8.4415   21.7609 C   0  0  0  0  0  0  0  0  0  0  0  0
    0.7466    9.5124   22.5685 C   0  0  0  0  0  0  0  0  0  0  0  0
    0.4072   10.7617   22.0267 C   0  0  0  0  0  0  0  0  0  0  0  0
    0.4957   10.8621   20.6248 C   0  0  0  0  0  0  0  0  0  0  0  0
    0.9009    9.8040   19.7997 C   0  0  0  0  0  0  0  0  0  0  0  0
    0.1332   12.1837   19.9766 C   0  0  0  0  0  0  0  0  0  0  0  0
    0.7694   13.4295   20.6549 C   0  0  0  0  0  0  0  0  0  0  0  0
    1.9303   13.3421   19.6317 C   0  0  0  0  0  0  0  0  0  0  0  0
    2.4472   14.6551   19.0799 C   0  0  0  0  0  0  0  0  0  0  0  0
    0.9741   12.5351   18.7170 C   0  0  0  0  0  0  0  0  0  0  0  0
   -1.3897   12.2827   19.7700 C   0  0  0  0  0  0  0  0  0  0  0  0
   -2.2094   13.0233   20.4813 N   0  0  0  0  0  0  0  0  0  0  0  0
   -3.4734   12.8487   19.9713 N   0  0  0  0  0  0  0  0  0  0  0  0
   -3.3826   12.0070   18.9666 C   0  0  0  0  0  0  0  0  0  0  0  0
   -2.0802   11.6130   18.7917 N   0  0  0  0  0  0  0  0  0  0  0  0
   -1.5551   10.7002   17.8021 C   0  0  0  0  0  0  0  0  0  0  0  0
    2.1967    3.1947   20.3878 C   0  0  0  0  0  0  0  0  0  0  0  0
    2.5069    1.8945   20.1375 F   0  0  0  0  0  0  0  0  0  0  0  0
    2.6744    3.4747   21.6305 F   0  0  0  0  0  0  0  0  0  0  0  0
    0.8451    3.2485   20.4874 F   0  0  0  0  0  0  0  0  0  0  0  0
    5.7323    4.2943   17.0446 C   0  0  0  0  0  0  0  0  0  0  0  0
    6.8583    5.0866   17.5876 N   0  0  0  0  0  0  0  0  0  0  0  0
    6.7001    6.5590   17.2857 C   0  0  0  0  0  0  0  0  0  0  0  0
    7.9482    7.3119   17.7502 C   0  0  0  0  0  0  0  0  0  0  0  0
    7.7992    8.8076   17.4796 C   0  0  0  0  0  0  0  0  0  0  0  0
    8.2216    7.0566   19.2370 C   0  0  0  0  0  0  0  0  0  0  0  0
    8.3058    5.5629   19.5353 C   0  0  0  0  0  0  0  0  0  0  0  0
    7.0646    4.8233   19.0596 C   0  0  0  0  0  0  0  0  0  0  0  0
    7.7149    4.7757   17.1074 H   0  0  0  0  0  0  0  0  0  0  0  0
  1  2  2  0  0  0
  2  3  1  0  0  0
  2 10  1  0  0  0
  3 11  1  0  0  0
  3  4  1  0  0  0
 11 12  2  0  0  0
 11 16  1  0  0  0
 12 13  1  0  0  0
 13 14  2  0  0  0
 14 15  1  0  0  0
 17 15  1  0  0  0
 15 16  2  0  0  0
 17 22  1  0  0  0
 17 18  1  0  0  0
 17 21  1  0  0  0
 22 23  2  0  0  0
 22 26  1  0  0  0
 23 24  1  0  0  0
 24 25  2  0  0  0
 25 26  1  0  0  0
 26 27  1  0  0  0
 18 19  1  0  0  0
 19 20  1  0  0  0
 19 21  1  0  0  0
  4  5  2  0  0  0
  5  6  1  0  0  0
  5 10  1  0  0  0
  6 28  1  0  0  0
  6  7  2  0  0  0
 28 29  1  0  0  0
 28 30  1  0  0  0
 28 31  1  0  0  0
  7  8  1  0  0  0
  8 32  1  0  0  0
  8  9  2  0  0  0
 32 33  1  0  0  0
 33 34  1  0  0  0
 33 39  1  0  0  0
 34 35  1  0  0  0
 35 36  1  0  0  0
 35 37  1  0  0  0
 37 38  1  0  0  0
 38 39  1  0  0  0
  9 10  1  0  0  0
 33 40  1  0  0  0
M  CHG 1  33   1
M  END
> <minimizedAffinity>
-8.64796

$$$$
