@<TRIPOS>MOLECULE
ligand_entry_00001_conf_01
12 12 1
SMALL
NO_CHARGES


@<TRIPOS>ATOM
      1 C          56.5419   27.6464   31.3472 C.ar      1 UNL1       -0.0618
      2 C          56.2423   28.8409   30.6756 C.ar      1 UNL1       -0.0618
      3 C          56.2210   30.0782   31.3376 C.ar      1 UNL1       -0.0618
      4 C          56.5303   30.0397   32.7110 C.ar      1 UNL1       -0.0618
      5 C          56.8349   28.8580   33.4003 C.ar      1 UNL1       -0.0618
      6 C          56.8301   27.6440   32.7144 C.ar      1 UNL1       -0.0618
      7 H          56.5498   26.7162   30.7839 H         1 UNL1        0.0618
      8 H          56.0330   28.7706   29.6111 H         1 UNL1        0.0618
      9 H          55.9911   31.0027   30.8248 H         1 UNL1        0.0618
     10 H          56.5327   30.9778   33.2647 H         1 UNL1        0.0618
     11 H          57.0685   28.8790   34.4622 H         1 UNL1        0.0618
     12 H          57.0602   26.7170   33.2285 H         1 UNL1        0.0618
@<TRIPOS>BOND
     1    1    2 ar
     2    2    3 ar
     3    3    4 ar
     4    4    5 ar
     5    5    6 ar
     6    6    1 ar
     7    1    7 1
     8    2    8 1
     9    3    9 1
    10    4   10 1
    11    5   11 1
    12    6   12 1
@<TRIPOS>SUBSTRUCTURE
1 UNL1 1
@<TRIPOS>COMMENT
ligand
PLANTSmolcadARTstart hb
PLANTSmolcadARTstart HB
LINES
PLANTSmolcadARTstart HBCH
LINES
PLANTSmolcadARTstart HB-CHO
LINES
PLANTSmolcadARTend
PLANTSmolcadARTstart HB_WATER
LINES
PLANTSmolcadARTend

PLANTSmolcadARTend

@<TRIPOS>MOLECULE
ligand_entry_00001_conf_02
12 12 1
SMALL
NO_CHARGES


@<TRIPOS>ATOM
      1 C          56.5323   30.0614   32.6761 C.ar      1 UNL1       -0.0618
      2 C          56.8306   28.8913   33.3900 C.ar      1 UNL1       -0.0618
      3 C          56.8344   27.6292   32.7762 C.ar      1 UNL1       -0.0618
      4 C          56.5315   27.6198   31.4009 C.ar      1 UNL1       -0.0618
      5 C          56.2334   28.7771   30.6686 C.ar      1 UNL1       -0.0618
      6 C          56.2220   30.0127   31.3148 C.ar      1 UNL1       -0.0618
      7 H          56.5493   31.0140   33.2006 H         1 UNL1        0.0618
      8 H          57.0682   29.0026   34.4450 H         1 UNL1        0.0618
      9 H          57.0642   26.7235   33.3215 H         1 UNL1        0.0618
     10 H          56.5293   26.6627   30.8807 H         1 UNL1        0.0618
     11 H          56.0063   28.7192   29.6067 H         1 UNL1        0.0618
     12 H          55.9913   30.9209   30.7682 H         1 UNL1        0.0618
@<TRIPOS>BOND
     1    1    2 ar
     2    2    3 ar
     3    3    4 ar
     4    4    5 ar
     5    5    6 ar
     6    6    1 ar
     7    1    7 1
     8    2    8 1
     9    3    9 1
    10    4   10 1
    11    5   11 1
    12    6   12 1
@<TRIPOS>SUBSTRUCTURE
1 UNL1 1
@<TRIPOS>COMMENT
ligand
PLANTSmolcadARTstart hb
PLANTSmolcadARTstart HB
LINES
PLANTSmolcadARTstart HBCH
LINES
PLANTSmolcadARTstart HB-CHO
LINES
PLANTSmolcadARTend
PLANTSmolcadARTstart HB_WATER
LINES
PLANTSmolcadARTend

PLANTSmolcadARTend

@<TRIPOS>MOLECULE
ligand_entry_00001_conf_03
12 12 1
SMALL
NO_CHARGES


@<TRIPOS>ATOM
      1 C          56.5295   27.5303   31.0730 C.ar      1 UNL1       -0.0618
      2 C          56.9602   27.0833   32.3309 C.ar      1 UNL1       -0.0618
      3 C          57.1309   27.9625   33.4115 C.ar      1 UNL1       -0.0618
      4 C          56.8309   29.3135   33.1508 C.ar      1 UNL1       -0.0618
      5 C          56.3968   29.7804   31.9026 C.ar      1 UNL1       -0.0618
      6 C          56.2547   28.8813   30.8464 C.ar      1 UNL1       -0.0618
      7 H          56.4086   26.8046   30.2720 H         1 UNL1        0.0618
      8 H          57.1509   26.0184   32.4387 H         1 UNL1        0.0618
      9 H          57.4624   27.6234   34.3839 H         1 UNL1        0.0618
     10 H          56.9424   30.0316   33.9623 H         1 UNL1        0.0618
     11 H          56.1764   30.8344   31.7499 H         1 UNL1        0.0618
     12 H          55.9226   29.2211   29.8712 H         1 UNL1        0.0618
@<TRIPOS>BOND
     1    1    2 ar
     2    2    3 ar
     3    3    4 ar
     4    4    5 ar
     5    5    6 ar
     6    6    1 ar
     7    1    7 1
     8    2    8 1
     9    3    9 1
    10    4   10 1
    11    5   11 1
    12    6   12 1
@<TRIPOS>SUBSTRUCTURE
1 UNL1 1
@<TRIPOS>COMMENT
ligand
PLANTSmolcadARTstart hb
PLANTSmolcadARTstart HB
LINES
PLANTSmolcadARTstart HBCH
LINES
PLANTSmolcadARTstart HB-CHO
LINES
PLANTSmolcadARTend
PLANTSmolcadARTstart HB_WATER
LINES
PLANTSmolcadARTend

PLANTSmolcadARTend

@<TRIPOS>MOLECULE
ligand_entry_00001_conf_04
12 12 1
SMALL
NO_CHARGES


@<TRIPOS>ATOM
      1 C          56.5307   30.0431   32.7496 C.ar      1 UNL1       -0.0618
      2 C          56.2365   30.0478   31.3781 C.ar      1 UNL1       -0.0618
      3 C          56.2354   28.8692   30.6161 C.ar      1 UNL1       -0.0618
      4 C          56.5368   27.6879   31.3210 C.ar      1 UNL1       -0.0618
      5 C          56.8308   27.6608   32.6911 C.ar      1 UNL1       -0.0618
      6 C          56.8395   28.8532   33.4137 C.ar      1 UNL1       -0.0618
      7 H          56.5115   30.9849   33.2930 H         1 UNL1        0.0618
      8 H          55.9998   31.0080   30.9264 H         1 UNL1        0.0618
      9 H          56.0089   28.8667   29.5582 H         1 UNL1        0.0618
     10 H          56.5411   26.7473   30.7715 H         1 UNL1        0.0618
     11 H          57.0568   26.7223   33.1922 H         1 UNL1        0.0618
     12 H          57.0669   28.8560   34.4744 H         1 UNL1        0.0618
@<TRIPOS>BOND
     1    1    2 ar
     2    2    3 ar
     3    3    4 ar
     4    4    5 ar
     5    5    6 ar
     6    6    1 ar
     7    1    7 1
     8    2    8 1
     9    3    9 1
    10    4   10 1
    11    5   11 1
    12    6   12 1
@<TRIPOS>SUBSTRUCTURE
1 UNL1 1
@<TRIPOS>COMMENT
ligand
PLANTSmolcadARTstart hb
PLANTSmolcadARTstart HB
LINES
PLANTSmolcadARTstart HBCH
LINES
PLANTSmolcadARTstart HB-CHO
LINES
PLANTSmolcadARTend
PLANTSmolcadARTstart HB_WATER
LINES
PLANTSmolcadARTend

PLANTSmolcadARTend

@<TRIPOS>MOLECULE
ligand_entry_00001_conf_05
12 12 1
SMALL
NO_CHARGES


@<TRIPOS>ATOM
      1 C          56.2375   28.8506   30.7036 C.ar      1 UNL1       -0.0618
      2 C          56.2384   30.0559   31.4211 C.ar      1 UNL1       -0.0618
      3 C          56.5299   30.1015   32.7932 C.ar      1 UNL1       -0.0618
      4 C          56.8308   28.8636   33.3935 C.ar      1 UNL1       -0.0618
      5 C          56.8381   27.6488   32.6946 C.ar      1 UNL1       -0.0618
      6 C          56.5269   27.6385   31.3354 C.ar      1 UNL1       -0.0618
      7 H          56.0101   28.8737   29.6403 H         1 UNL1        0.0618
      8 H          56.0098   30.9622   30.8658 H         1 UNL1        0.0618
      9 H          56.5325   31.0281   33.3516 H         1 UNL1        0.0618
     10 H          57.0701   28.8514   34.4562 H         1 UNL1        0.0618
     11 H          57.0779   26.7174   33.2023 H         1 UNL1        0.0618
     12 H          56.5239   26.7094   30.7754 H         1 UNL1        0.0618
@<TRIPOS>BOND
     1    1    2 ar
     2    2    3 ar
     3    3    4 ar
     4    4    5 ar
     5    5    6 ar
     6    6    1 ar
     7    1    7 1
     8    2    8 1
     9    3    9 1
    10    4   10 1
    11    5   11 1
    12    6   12 1
@<TRIPOS>SUBSTRUCTURE
1 UNL1 1
@<TRIPOS>COMMENT
ligand
PLANTSmolcadARTstart hb
PLANTSmolcadARTstart HB
LINES
PLANTSmolcadARTstart HBCH
LINES
PLANTSmolcadARTstart HB-CHO
LINES
PLANTSmolcadARTend
PLANTSmolcadARTstart HB_WATER
LINES
PLANTSmolcadARTend

PLANTSmolcadARTend

@<TRIPOS>MOLECULE
ligand_entry_00001_conf_06
12 12 1
SMALL
NO_CHARGES


@<TRIPOS>ATOM
      1 C          56.8372   27.6607   32.6739 C.ar      1 UNL1       -0.0618
      2 C          56.8303   28.8569   33.4064 C.ar      1 UNL1       -0.0618
      3 C          56.5324   30.0909   32.8079 C.ar      1 UNL1       -0.0618
      4 C          56.2316   30.0442   31.4329 C.ar      1 UNL1       -0.0618
      5 C          56.2302   28.8599   30.6833 C.ar      1 UNL1       -0.0618
      6 C          56.5477   27.6539   31.3070 C.ar      1 UNL1       -0.0618
      7 H          57.0695   26.7317   33.1894 H         1 UNL1        0.0618
      8 H          57.0594   28.7887   34.4670 H         1 UNL1        0.0618
      9 H          56.5251   31.0166   33.3679 H         1 UNL1        0.0618
     10 H          55.9874   30.9776   30.9273 H         1 UNL1        0.0618
     11 H          55.9902   28.8743   29.6227 H         1 UNL1        0.0618
     12 H          56.5554   26.7257   30.7457 H         1 UNL1        0.0618
@<TRIPOS>BOND
     1    1    2 ar
     2    2    3 ar
     3    3    4 ar
     4    4    5 ar
     5    5    6 ar
     6    6    1 ar
     7    1    7 1
     8    2    8 1
     9    3    9 1
    10    4   10 1
    11    5   11 1
    12    6   12 1
@<TRIPOS>SUBSTRUCTURE
1 UNL1 1
@<TRIPOS>COMMENT
ligand
PLANTSmolcadARTstart hb
PLANTSmolcadARTstart HB
LINES
PLANTSmolcadARTstart HBCH
LINES
PLANTSmolcadARTstart HB-CHO
LINES
PLANTSmolcadARTend
PLANTSmolcadARTstart HB_WATER
LINES
PLANTSmolcadARTend

PLANTSmolcadARTend

@<TRIPOS>MOLECULE
ligand_entry_00001_conf_07
12 12 1
SMALL
NO_CHARGES


@<TRIPOS>ATOM
      1 C          56.2907   28.8633   30.7030 C.ar      1 UNL1       -0.0618
      2 C          56.5863   27.6628   31.3656 C.ar      1 UNL1       -0.0618
      3 C          56.8711   27.6251   32.7393 C.ar      1 UNL1       -0.0618
      4 C          56.8285   28.8656   33.4046 C.ar      1 UNL1       -0.0618
      5 C          56.5328   30.0757   32.7622 C.ar      1 UNL1       -0.0618
      6 C          56.2715   30.0783   31.3926 C.ar      1 UNL1       -0.0618
      7 H          56.0719   28.8341   29.6381 H         1 UNL1        0.0618
      8 H          56.5786   26.7539   30.7692 H         1 UNL1        0.0618
      9 H          57.0993   26.7022   33.2558 H         1 UNL1        0.0618
     10 H          57.0363   28.8839   34.4738 H         1 UNL1        0.0618
     11 H          56.5110   31.0094   33.3194 H         1 UNL1        0.0618
     12 H          56.0430   31.0036   30.8745 H         1 UNL1        0.0618
@<TRIPOS>BOND
     1    1    2 ar
     2    2    3 ar
     3    3    4 ar
     4    4    5 ar
     5    5    6 ar
     6    6    1 ar
     7    1    7 1
     8    2    8 1
     9    3    9 1
    10    4   10 1
    11    5   11 1
    12    6   12 1
@<TRIPOS>SUBSTRUCTURE
1 UNL1 1
@<TRIPOS>COMMENT
ligand
PLANTSmolcadARTstart hb
PLANTSmolcadARTstart HB
LINES
PLANTSmolcadARTstart HBCH
LINES
PLANTSmolcadARTstart HB-CHO
LINES
PLANTSmolcadARTend
PLANTSmolcadARTstart HB_WATER
LINES
PLANTSmolcadARTend

PLANTSmolcadARTend

@<TRIPOS>MOLECULE
ligand_entry_00001_conf_08
12 12 1
SMALL
NO_CHARGES


@<TRIPOS>ATOM
      1 C          56.8382   27.6596   32.5329 C.ar      1 UNL1       -0.0618
      2 C          56.5429   27.6750   31.1617 C.ar      1 UNL1       -0.0618
      3 C          56.2266   28.8631   30.4849 C.ar      1 UNL1       -0.0618
      4 C          56.2374   30.0325   31.2695 C.ar      1 UNL1       -0.0618
      5 C          56.5323   30.0395   32.6397 C.ar      1 UNL1       -0.0618
      6 C          56.8254   28.8379   33.2835 C.ar      1 UNL1       -0.0618
      7 H          57.0822   26.7112   33.0059 H         1 UNL1        0.0618
      8 H          56.5764   26.7229   30.6379 H         1 UNL1        0.0618
      9 H          55.9984   28.8811   29.4275 H         1 UNL1        0.0618
     10 H          56.0044   30.9799   30.7849 H         1 UNL1        0.0618
     11 H          56.5288   30.9693   33.2038 H         1 UNL1        0.0618
     12 H          57.0539   28.8196   34.3438 H         1 UNL1        0.0618
@<TRIPOS>BOND
     1    1    2 ar
     2    2    3 ar
     3    3    4 ar
     4    4    5 ar
     5    5    6 ar
     6    6    1 ar
     7    1    7 1
     8    2    8 1
     9    3    9 1
    10    4   10 1
    11    5   11 1
    12    6   12 1
@<TRIPOS>SUBSTRUCTURE
1 UNL1 1
@<TRIPOS>COMMENT
ligand
PLANTSmolcadARTstart hb
PLANTSmolcadARTstart HB
LINES
PLANTSmolcadARTstart HBCH
LINES
PLANTSmolcadARTstart HB-CHO
LINES
PLANTSmolcadARTend
PLANTSmolcadARTstart HB_WATER
LINES
PLANTSmolcadARTend

PLANTSmolcadARTend

@<TRIPOS>MOLECULE
ligand_entry_00001_conf_09
12 12 1
SMALL
NO_CHARGES


@<TRIPOS>ATOM
      1 C          56.8317   29.0420   33.2800 C.ar      1 UNL1       -0.0618
      2 C          57.0074   27.6612   33.1060 C.ar      1 UNL1       -0.0618
      3 C          56.8580   27.0471   31.8529 C.ar      1 UNL1       -0.0618
      4 C          56.5331   27.9085   30.7872 C.ar      1 UNL1       -0.0618
      5 C          56.3559   29.2906   30.9389 C.ar      1 UNL1       -0.0618
      6 C          56.4953   29.8646   32.2019 C.ar      1 UNL1       -0.0618
      7 H          56.9654   29.4664   34.2724 H         1 UNL1        0.0618
      8 H          57.2736   27.0817   33.9865 H         1 UNL1        0.0618
      9 H          56.9926   25.9828   31.7126 H         1 UNL1        0.0618
     10 H          56.4138   27.4768   29.7942 H         1 UNL1        0.0618
     11 H          56.1061   29.9155   30.0846 H         1 UNL1        0.0618
     12 H          56.3600   30.9317   32.3429 H         1 UNL1        0.0618
@<TRIPOS>BOND
     1    1    2 ar
     2    2    3 ar
     3    3    4 ar
     4    4    5 ar
     5    5    6 ar
     6    6    1 ar
     7    1    7 1
     8    2    8 1
     9    3    9 1
    10    4   10 1
    11    5   11 1
    12    6   12 1
@<TRIPOS>SUBSTRUCTURE
1 UNL1 1
@<TRIPOS>COMMENT
ligand
PLANTSmolcadARTstart hb
PLANTSmolcadARTstart HB
LINES
PLANTSmolcadARTstart HBCH
LINES
PLANTSmolcadARTstart HB-CHO
LINES
PLANTSmolcadARTend
PLANTSmolcadARTstart HB_WATER
LINES
PLANTSmolcadARTend

PLANTSmolcadARTend

@<TRIPOS>MOLECULE
ligand_entry_00001_conf_10
12 12 1
SMALL
NO_CHARGES


@<TRIPOS>ATOM
      1 C          56.8342   27.9771   33.0950 C.ar      1 UNL1       -0.0618
      2 C          56.5334   29.3292   32.8735 C.ar      1 UNL1       -0.0618
      3 C          56.2307   29.8213   31.5944 C.ar      1 UNL1       -0.0618
      4 C          56.2382   28.8684   30.5576 C.ar      1 UNL1       -0.0618
      5 C          56.5332   27.5129   30.7577 C.ar      1 UNL1       -0.0618
      6 C          56.8464   27.0619   32.0394 C.ar      1 UNL1       -0.0618
      7 H          57.0560   27.6487   34.1077 H         1 UNL1        0.0618
      8 H          56.5368   29.9851   33.7405 H         1 UNL1        0.0618
      9 H          55.9976   30.8629   31.4176 H         1 UNL1        0.0618
     10 H          56.0023   29.2037   29.5484 H         1 UNL1        0.0618
     11 H          56.5255   26.8140   29.9246 H         1 UNL1        0.0618
     12 H          57.0804   26.0176   32.2169 H         1 UNL1        0.0618
@<TRIPOS>BOND
     1    1    2 ar
     2    2    3 ar
     3    3    4 ar
     4    4    5 ar
     5    5    6 ar
     6    6    1 ar
     7    1    7 1
     8    2    8 1
     9    3    9 1
    10    4   10 1
    11    5   11 1
    12    6   12 1
@<TRIPOS>SUBSTRUCTURE
1 UNL1 1
@<TRIPOS>COMMENT
ligand
PLANTSmolcadARTstart hb
PLANTSmolcadARTstart HB
LINES
PLANTSmolcadARTstart HBCH
LINES
PLANTSmolcadARTstart HB-CHO
LINES
PLANTSmolcadARTend
PLANTSmolcadARTstart HB_WATER
LINES
PLANTSmolcadARTend

PLANTSmolcadARTend

