@<TRIPOS>MOLECULE
ligand_entry_00001_conf_01_protein
0 0 0
SMALL
NO_CHARGES


@<TRIPOS>ATOM
@<TRIPOS>BOND
@<TRIPOS>COMMENT
@<TRIPOS>MOLECULE
ligand_entry_00001_conf_02_protein
0 0 0
SMALL
NO_CHARGES


@<TRIPOS>ATOM
@<TRIPOS>BOND
@<TRIPOS>COMMENT
@<TRIPOS>MOLECULE
ligand_entry_00001_conf_03_protein
0 0 0
SMALL
NO_CHARGES


@<TRIPOS>ATOM
@<TRIPOS>BOND
@<TRIPOS>COMMENT
@<TRIPOS>MOLECULE
ligand_entry_00001_conf_04_protein
0 0 0
SMALL
NO_CHARGES


@<TRIPOS>ATOM
@<TRIPOS>BOND
@<TRIPOS>COMMENT
@<TRIPOS>MOLECULE
ligand_entry_00001_conf_05_protein
0 0 0
SMALL
NO_CHARGES


@<TRIPOS>ATOM
@<TRIPOS>BOND
@<TRIPOS>COMMENT
@<TRIPOS>MOLECULE
ligand_entry_00001_conf_06_protein
0 0 0
SMALL
NO_CHARGES


@<TRIPOS>ATOM
@<TRIPOS>BOND
@<TRIPOS>COMMENT
@<TRIPOS>MOLECULE
ligand_entry_00001_conf_07_protein
0 0 0
SMALL
NO_CHARGES


@<TRIPOS>ATOM
@<TRIPOS>BOND
@<TRIPOS>COMMENT
@<TRIPOS>MOLECULE
ligand_entry_00001_conf_08_protein
0 0 0
SMALL
NO_CHARGES


@<TRIPOS>ATOM
@<TRIPOS>BOND
@<TRIPOS>COMMENT
@<TRIPOS>MOLECULE
ligand_entry_00001_conf_09_protein
0 0 0
SMALL
NO_CHARGES


@<TRIPOS>ATOM
@<TRIPOS>BOND
@<TRIPOS>COMMENT
@<TRIPOS>MOLECULE
ligand_entry_00001_conf_10_protein
0 0 0
SMALL
NO_CHARGES


@<TRIPOS>ATOM
@<TRIPOS>BOND
@<TRIPOS>COMMENT
