@<TRIPOS>MOLECULE
/tmp/LAC3_tmp.pdb
95 94 7
SMALL
NO_CHARGES


@<TRIPOS>ATOM
      1 N          55.6440   28.9220   38.1000 N.am      5 ALA5       -0.3027
      2 H          55.8390   28.6380   39.2350 H         5 ALA5        0.1495
      3 CA         56.2790   28.0450   37.1540 C.3       5 ALA5        0.0966
      4 HA         55.8360   28.3310   36.0880 H         5 ALA5        0.0592
      5 C          55.9380   26.6270   37.5570 C.2       5 ALA5        0.2337
      6 O          55.4820   26.3790   38.6750 O.2       5 ALA5       -0.2738
      7 CB         57.8140   28.2070   37.1560 C.3       5 ALA5       -0.0381
      8 HB1        58.3000   28.0790   36.0730 H         5 ALA5        0.0252
      9 HB2        58.3340   27.4230   37.8940 H         5 ALA5        0.0252
     10 HB3        58.2340   29.2500   37.5590 H         5 ALA5        0.0252
     11 N          60.6530   23.5840   34.6720 N.am      9 ALA9       -0.3030
     12 H          60.3310   23.9890   35.7350 H         9 ALA9        0.1495
     13 CA         60.2220   24.5010   33.6400 C.3       9 ALA9        0.0968
     14 HA         60.2770   23.8330   32.6540 H         9 ALA9        0.0592
     15 C          61.0060   25.8240   33.5500 C.2       9 ALA9        0.2362
     16 O          61.5820   26.2670   34.5450 O.2       9 ALA9       -0.2736
     17 CB         58.7390   24.8080   33.9160 C.3       9 ALA9       -0.0381
     18 HB1        58.1580   23.7910   33.6710 H         9 ALA9        0.0252
     19 HB2        58.6510   25.4100   34.9390 H         9 ALA9        0.0252
     20 HB3        58.2270   25.5380   33.1140 H         9 ALA9        0.0252
     21 N          61.0470   26.5120   32.4010 N.am     10 PRO10      -0.2884
     22 CA         61.7230   27.7980   32.2840 C.3      10 PRO10       0.1023
     23 HA         62.7220   27.8720   32.9230 H        10 PRO10       0.0597
     24 C          60.7610   28.9700   32.4640 C.2      10 PRO10       0.2342
     25 O          59.8230   29.1410   31.6890 O.2      10 PRO10      -0.2738
     26 CB         62.2660   27.7750   30.8470 C.3      10 PRO10      -0.0243
     27 HB2        63.3180   27.2420   30.6570 H        10 PRO10       0.0288
     28 HB3        62.4260   28.8500   30.3470 H        10 PRO10       0.0288
     29 CG         61.2100   26.9880   30.0590 C.3      10 PRO10      -0.0350
     30 HG2        61.6970   26.4550   29.1020 H        10 PRO10       0.0281
     31 HG3        60.4160   27.6790   29.4900 H        10 PRO10       0.0281
     32 CD         60.6700   25.9790   31.0840 C.3      10 PRO10       0.0156
     33 HD2        61.1970   24.9610   30.7460 H        10 PRO10       0.0465
     34 HD3        59.5070   25.8410   30.8490 H        10 PRO10       0.0465
     35 N          60.9840   29.8320   33.4740 N.am     11 ALA11      -0.3027
     36 H          61.6060   29.5250   34.4360 H        11 ALA11       0.1495
     37 CA         60.1940   31.0390   33.6330 C.3      11 ALA11       0.0966
     38 HA         59.5720   31.2340   32.6350 H        11 ALA11       0.0592
     39 C          61.0770   32.2430   33.8980 C.2      11 ALA11       0.2337
     40 O          61.8090   32.2840   34.8810 O.2      11 ALA11      -0.2738
     41 CB         59.1990   30.8940   34.8010 C.3      11 ALA11      -0.0381
     42 HB1        58.3260   31.7090   34.6910 H        11 ALA11       0.0252
     43 HB2        59.6130   31.1210   35.8980 H        11 ALA11       0.0252
     44 HB3        58.6980   29.8350   34.5880 H        11 ALA11       0.0252
     45 N          61.0420   33.2810   33.0310 N.am     12 GLN12      -0.3025
     46 H          60.2140   33.3600   32.1810 H        12 GLN12       0.1495
     47 CA         61.7590   34.5170   33.3130 C.3      12 GLN12       0.0999
     48 HA         62.8630   34.1380   33.5380 H        12 GLN12       0.0595
     49 C          61.2420   35.2740   34.5350 C.2      12 GLN12       0.2340
     50 O          60.0520   35.2930   34.8460 O.2      12 GLN12      -0.2738
     51 CB         61.9000   35.4740   32.0990 C.3      12 GLN12      -0.0177
     52 HB2        61.8730   36.6260   32.4150 H        12 GLN12       0.0292
     53 HB3        60.8600   35.5080   31.5050 H        12 GLN12       0.0292
     54 CG         62.9820   35.0320   31.0770 C.3      12 GLN12       0.0259
     55 HG2        62.4040   34.9410   30.0350 H        12 GLN12       0.0359
     56 HG3        63.5740   34.0010   31.1320 H        12 GLN12       0.0359
     57 CD         63.8770   36.1990   30.6270 C.2      12 GLN12       0.2106
     58 NE2        64.9740   35.8540   29.9110 N.am     12 GLN12      -0.3293
     59 HE21       65.0370   36.3050   28.8100 H        12 GLN12       0.1449
     60 HE22       65.9520   35.2170   30.1300 H        12 GLN12       0.1449
     61 OE1        63.6440   37.3670   30.9310 O.2      12 GLN12      -0.2760
     62 N          51.7260   33.3040   30.9400 N.am    220 PHE220     -0.3024
     63 H          51.9170   34.1040   31.7950 H       220 PHE220      0.1495
     64 CA         52.0990   31.9420   31.3040 C.3     220 PHE220      0.1033
     65 HA         53.2880   32.0360   31.3590 H       220 PHE220      0.0598
     66 C          51.6000   30.9360   30.2650 C.2     220 PHE220      0.2343
     67 O          50.4370   30.9750   29.8630 O.2     220 PHE220     -0.2738
     68 CB         51.5640   31.5800   32.7180 C.3     220 PHE220     -0.0007
     69 HB2        50.3840   31.6740   32.7270 H       220 PHE220      0.0336
     70 HB3        52.1680   32.2640   33.4820 H       220 PHE220      0.0336
     71 CG         51.9670   30.2120   33.1950 C.ar    220 PHE220     -0.0451
     72 CD1        53.2820   29.9520   33.6010 C.ar    220 PHE220     -0.0585
     73 HD1        54.2060   30.6990   33.5830 H       220 PHE220      0.0620
     74 CD2        51.0280   29.1680   33.2270 C.ar    220 PHE220     -0.0585
     75 HD2        50.1590   29.1190   32.4230 H       220 PHE220      0.0620
     76 CE1        53.6520   28.6780   34.0500 C.ar    220 PHE220     -0.0615
     77 HE1        54.7280   28.3470   33.6750 H       220 PHE220      0.0618
     78 CE2        51.4050   27.8940   33.6590 C.ar    220 PHE220     -0.0615
     79 HE2        50.7090   27.0130   34.0300 H       220 PHE220      0.0618
     80 CZ         52.7140   27.6430   34.0740 C.ar    220 PHE220     -0.0617
     81 HZ         53.0270   26.8040   34.8460 H       220 PHE220      0.0618
     82 N          52.4860   30.0090   29.8540 N.am    221 ASN221     -0.3020
     83 H          53.5870   29.9530   30.2990 H       221 ASN221      0.1495
     84 CA         52.2520   29.0530   28.7970 C.3     221 ASN221      0.1076
     85 HA         51.3420   29.2990   28.0700 H       221 ASN221      0.0599
     86 C          52.2300   27.6860   29.4290 C.2     221 ASN221      0.2345
     87 O          53.2170   27.2700   30.0290 O.2     221 ASN221     -0.2737
     88 CB         53.4470   29.0350   27.8070 C.3     221 ASN221      0.0506
     89 HB2        54.5500   28.9370   28.2540 H       221 ASN221      0.0381
     90 HB3        53.3740   28.1430   27.0130 H       221 ASN221      0.0381
     91 CG         53.4140   30.2580   26.9040 C.2     221 ASN221      0.2127
     92 ND2        54.5870   30.5580   26.2970 N.am    221 ASN221     -0.3293
     93 HD21       55.0090   30.0340   25.3150 H       221 ASN221      0.1449
     94 HD22       55.2140   31.5410   26.5340 H       221 ASN221      0.1449
     95 OD1        52.3910   30.9010   26.6950 O.2     221 ASN221     -0.2760
@<TRIPOS>BOND
     1   93   92 1
     2   92   94 1
     3   92   91 am
     4   95   91 2
     5   91   88 1
     6   90   88 1
     7   88   89 1
     8   88   84 1
     9   85   84 1
    10   84   86 1
    11   84   82 1
    12   59   58 1
    13   30   29 1
    14   86   87 2
    15   31   29 1
    16   82   66 am
    17   82   83 1
    18   67   66 2
    19   58   60 1
    20   58   57 am
    21   55   54 1
    22   29   26 1
    23   29   32 1
    24   66   64 1
    25   28   26 1
    26   57   61 2
    27   57   54 1
    28   27   26 1
    29   33   32 1
    30   26   22 1
    31   34   32 1
    32   62   64 1
    33   62   63 1
    34   54   56 1
    35   54   51 1
    36   32   21 1
    37   64   65 1
    38   64   68 1
    39   53   51 1
    40   25   24 2
    41   51   52 1
    42   51   47 1
    43   46   45 1
    44   22   21 1
    45   22   24 1
    46   22   23 1
    47   21   15 am
    48   75   74 1
    49   24   35 am
    50   38   37 1
    51   14   13 1
    52   68   69 1
    53   68   71 1
    54   68   70 1
    55   45   47 1
    56   45   39 am
    57   20   17 1
    58   71   74 ar
    59   71   72 ar
    60   74   78 ar
    61   47   48 1
    62   47   49 1
    63   35   37 1
    64   35   36 1
    65   15   13 1
    66   15   16 2
    67   73   72 1
    68   72   76 ar
    69   37   39 1
    70   37   41 1
    71   13   17 1
    72   13   11 1
    73   78   79 1
    74   78   80 ar
    75   18   17 1
    76   77   76 1
    77   39   40 2
    78   17   19 1
    79   76   80 ar
    80   80   81 1
    81   49   50 2
    82   44   41 1
    83   11   12 1
    84   42   41 1
    85   41   43 1
    86    8    7 1
    87    4    3 1
    88    3    7 1
    89    3    5 1
    90    3    1 1
    91    7   10 1
    92    7    9 1
    93    5    6 2
    94    1    2 1
@<TRIPOS>SUBSTRUCTURE
5 ALA5 1
9 ALA9 11
10 PRO10 21
11 ALA11 35
12 GLN12 45
220 PHE220 62
221 ASN221 82
@<TRIPOS>COMMENT
