ligand
  PyMOL3.1          3D                             0

 46 50  0  0  0  0  0  0  0  0999 V2000
  134.9232  115.8192  154.9213 C   0  0  0  0  0  0  0  0  0  0  0  0
  134.3767  115.0967  153.6847 C   0  0  0  0  0  0  0  0  0  0  0  0
  133.4544  115.9946  152.8704 C   0  0  0  0  0  0  0  0  0  0  0  0
  133.7626  116.3696  155.7687 C   0  0  0  0  0  0  0  0  0  0  0  0
  132.8584  117.2748  154.9420 C   0  0  0  0  0  0  0  0  0  0  0  0
  132.3322  116.5064  153.7476 N   0  3  0  0  0  0  0  0  0  0  0  0
  131.8403  115.6716  154.0969 H   0  0  0  0  0  0  0  0  0  0  0  0
  136.8723  115.3024  156.5038 C   0  0  0  0  0  0  0  0  0  0  0  0
  137.4426  114.1971  156.9243 N   0  0  0  0  0  0  0  0  0  0  0  0
  136.7529  113.1716  156.3282 N   0  0  0  0  0  0  0  0  0  0  0  0
  135.7768  113.6353  155.5595 N   0  0  0  0  0  0  0  0  0  0  0  0
  135.8485  114.9812  155.6491 N   0  0  0  0  0  0  0  0  0  0  0  0
  137.3864  117.5105  155.7053 O   0  0  0  0  0  0  0  0  0  0  0  0
  137.2526  116.6780  156.8605 C   0  0  0  0  0  0  0  0  0  0  0  0
  138.1380  117.1850  155.1492 H   0  0  0  0  0  0  0  0  0  0  0  0
  136.3171  117.3032  157.8311 C   0  0  0  0  0  0  0  0  0  0  0  0
  135.8545  118.6068  157.6340 C   0  0  0  0  0  0  0  0  0  0  0  0
  134.9705  119.2036  158.5451 C   0  0  0  0  0  0  0  0  0  0  0  0
  134.5159  118.5276  159.6879 C   0  0  0  0  0  0  0  0  0  0  0  0
  135.0139  117.2219  159.8619 C   0  0  0  0  0  0  0  0  0  0  0  0
  135.8995  116.6082  158.9654 C   0  0  0  0  0  0  0  0  0  0  0  0
  134.5710  120.4927  158.2768 O   0  0  0  0  0  0  0  0  0  0  0  0
  133.2023  120.6969  157.9675 C   0  0  0  0  0  0  0  0  0  0  0  0
  132.4753  120.9100  159.0846 F   0  0  0  0  0  0  0  0  0  0  0  0
  132.6948  119.6513  157.2808 F   0  0  0  0  0  0  0  0  0  0  0  0
  133.0981  121.7968  157.1873 F   0  0  0  0  0  0  0  0  0  0  0  0
  131.3422  117.3105  152.9969 C   0  0  0  0  0  0  0  0  0  0  0  0
  130.0199  116.6933  152.8671 C   0  0  0  0  0  0  0  0  0  0  0  0
  128.8855  116.5932  153.6477 C   0  0  0  0  0  0  0  0  0  0  0  0
  127.9574  115.8611  152.9409 N   0  0  0  0  0  0  0  0  0  0  0  0
  128.4907  115.5146  151.7546 C   0  0  0  0  0  0  0  0  0  0  0  0
  127.7065  114.7083  150.7673 C   0  0  0  0  0  0  0  0  0  0  0  0
  126.4635  114.3695  151.1522 C   0  0  0  0  0  0  0  0  0  0  0  0
  125.9510  114.7815  152.4560 C   0  0  0  0  0  0  0  0  0  0  0  0
  126.6806  115.5074  153.3244 C   0  0  0  0  0  0  0  0  0  0  0  0
  129.7286  116.0086  151.6958 N   0  3  0  0  0  0  0  0  0  0  0  0
  130.3724  115.8983  150.8994 H   0  0  0  0  0  0  0  0  0  0  0  0
  124.5497  114.3600  152.8079 C   0  0  0  0  0  0  0  0  0  0  0  0
  124.1800  114.5720  154.0022 O   0  5  0  0  0  0  0  0  0  0  0  0
  123.8703  113.8251  151.8813 O   0  0  0  0  0  0  0  0  0  0  0  0
  128.5422  117.0520  154.9009 N   0  0  0  0  0  0  0  0  0  0  0  0
  128.4511  116.3538  155.6525 H   0  0  0  0  0  0  0  0  0  0  0  0
  128.2995  118.4353  155.2450 C   0  0  0  0  0  0  0  0  0  0  0  0
  126.8446  118.7999  154.9734 C   0  0  0  0  0  0  0  0  0  0  0  0
  126.7721  119.5619  153.7797 O   0  0  0  0  0  0  0  0  0  0  0  0
  127.9355  120.3486  153.5576 C   0  0  0  0  0  0  0  0  0  0  0  0
 13 14  1  0  0  0  0
 14 16  1  0  0  0  0
 16 17  2  0  0  0  0
 17 18  1  0  0  0  0
 18 22  1  0  0  0  0
 22 23  1  0  0  0  0
 23 24  1  0  0  0  0
 23 25  1  0  0  0  0
 23 26  1  0  0  0  0
 18 19  2  0  0  0  0
 19 20  1  0  0  0  0
 20 21  2  0  0  0  0
  8 14  1  0  0  0  0
  8  9  2  0  0  0  0
  9 10  1  0  0  0  0
 10 11  2  0  0  0  0
 11 12  1  0  0  0  0
  1 12  1  0  0  0  0
  1  2  1  0  0  0  0
  2  3  1  0  0  0  0
  1  4  1  0  0  0  0
  4  5  1  0  0  0  0
  5  6  1  0  0  0  0
  6 27  1  0  0  0  0
 27 28  1  0  0  0  0
 28 29  2  0  0  0  0
 29 41  1  0  0  0  0
 41 43  1  0  0  0  0
 43 44  1  0  0  0  0
 44 45  1  0  0  0  0
 45 46  1  0  0  0  0
 29 30  1  0  0  0  0
 30 31  1  0  0  0  0
 31 32  1  0  0  0  0
 32 33  2  0  0  0  0
 33 34  1  0  0  0  0
 34 38  1  0  0  0  0
 38 39  1  0  0  0  0
 38 40  2  0  0  0  0
 34 35  2  0  0  0  0
 31 36  2  0  0  0  0
 16 21  1  0  0  0  0
  8 12  1  0  0  0  0
  3  6  1  0  0  0  0
 28 36  1  0  0  0  0
 30 35  1  0  0  0  0
 13 15  1  0  0  0  0
  6  7  1  0  0  0  0
 41 42  1  0  0  0  0
 36 37  1  0  0  0  0
M  END
>  <minimizedAffinity>
-11.390230

$$$$
