ligand
     RDKit          3D

 29 32  0  0  0  0  0  0  0  0999 V2000
   56.0008   31.9947   28.4384 O   0  0  0  0  0  0  0  0  0  0  0  0
   57.1271   31.7459   28.8637 C   0  0  0  0  0  0  0  0  0  0  0  0
   57.4141   31.0273   30.0138 N   0  0  0  0  0  0  0  0  0  0  0  0
   58.3704   32.1839   28.1200 C   0  0  0  0  0  0  0  0  0  0  0  0
   59.5929   31.4647   28.6322 C   0  0  1  0  0  0  0  0  0  0  0  0
   60.3335   31.0272   27.4983 O   0  0  0  0  0  0  0  0  0  0  0  0
   61.5766   30.5540   27.8190 C   0  0  0  0  0  0  0  0  0  0  0  0
   62.1762   29.6534   26.9401 C   0  0  0  0  0  0  0  0  0  0  0  0
   63.4571   29.1715   27.2119 C   0  0  0  0  0  0  0  0  0  0  0  0
   64.1415   29.6015   28.3505 C   0  0  0  0  0  0  0  0  0  0  0  0
   63.5497   30.5187   29.2196 C   0  0  0  0  0  0  0  0  0  0  0  0
   62.2650   30.9915   28.9501 C   0  0  0  0  0  0  0  0  0  0  0  0
   61.6809   31.9532   29.7822 N   0  0  0  0  0  0  0  0  0  0  0  0
   60.3668   32.3414   29.6196 C   0  0  0  0  0  0  0  0  0  0  0  0
   59.8475   33.2501   30.2637 O   0  0  0  0  0  0  0  0  0  0  0  0
   56.3983   30.4747   30.8652 C   0  0  1  0  0  0  0  0  0  0  0  0
   56.5098   28.9931   30.8373 C   0  0  0  0  0  0  0  0  0  0  0  0
   56.7331   28.3195   29.6338 C   0  0  0  0  0  0  0  0  0  0  0  0
   56.8405   26.9213   29.5993 C   0  0  0  0  0  0  0  0  0  0  0  0
   56.7270   26.1403   30.7599 C   0  0  0  0  0  0  0  0  0  0  0  0
   56.4878   26.8514   31.9517 C   0  0  0  0  0  0  0  0  0  0  0  0
   56.3745   28.2473   32.0076 C   0  0  0  0  0  0  0  0  0  0  0  0
   56.6125   31.0333   32.2820 C   0  0  0  0  0  0  0  0  0  0  0  0
   56.4304   32.5060   32.3604 C   0  0  0  0  0  0  0  0  0  0  0  0
   57.4699   33.3286   32.8020 C   0  0  0  0  0  0  0  0  0  0  0  0
   57.3061   34.7196   32.8778 C   0  0  0  0  0  0  0  0  0  0  0  0
   56.1015   35.3447   32.5200 C   0  0  0  0  0  0  0  0  0  0  0  0
   55.0717   34.4839   32.0935 C   0  0  0  0  0  0  0  0  0  0  0  0
   55.2137   33.0919   32.0131 C   0  0  0  0  0  0  0  0  0  0  0  0
  1  2  2  0
  2  4  1  0
  2  3  1  0
  5  4  1  6
  5  6  1  0
  5 14  1  0
  6  7  1  0
  7  8  2  0
  7 12  1  0
  8  9  1  0
  9 10  2  0
 10 11  1  0
 11 12  2  0
 12 13  1  0
 13 14  1  0
 14 15  2  0
  3 16  1  0
 16 23  1  1
 16 17  1  0
 23 24  1  0
 24 25  2  0
 24 29  1  0
 25 26  1  0
 26 27  2  0
 27 28  1  0
 28 29  2  0
 17 18  2  0
 17 22  1  0
 18 19  1  0
 19 20  2  0
 20 21  1  0
 21 22  2  0
M  END
>  <minimizedAffinity>  (1) 
-7.08738

>  <Compliance>  (1) 
96.29629629629629

$$$$
ligand
     RDKit          3D

 29 32  0  0  0  0  0  0  0  0999 V2000
   55.7933   31.5772   28.7481 O   0  0  0  0  0  0  0  0  0  0  0  0
   56.9108   31.7316   29.2366 C   0  0  0  0  0  0  0  0  0  0  0  0
   57.2494   31.5073   30.5620 N   0  0  0  0  0  0  0  0  0  0  0  0
   58.0921   32.1625   28.3942 C   0  0  0  0  0  0  0  0  0  0  0  0
   58.3824   33.6313   28.5744 C   0  0  1  0  0  0  0  0  0  0  0  0
   57.1322   34.2957   28.7201 O   0  0  0  0  0  0  0  0  0  0  0  0
   57.2601   35.6007   29.1110 C   0  0  0  0  0  0  0  0  0  0  0  0
   56.2223   36.4775   28.7993 C   0  0  0  0  0  0  0  0  0  0  0  0
   56.2969   37.8095   29.2082 C   0  0  0  0  0  0  0  0  0  0  0  0
   57.3983   38.2582   29.9397 C   0  0  0  0  0  0  0  0  0  0  0  0
   58.4276   37.3757   30.2696 C   0  0  0  0  0  0  0  0  0  0  0  0
   58.3546   36.0468   29.8512 C   0  0  0  0  0  0  0  0  0  0  0  0
   59.3516   35.1374   30.2216 N   0  0  0  0  0  0  0  0  0  0  0  0
   59.3774   33.8537   29.7159 C   0  0  0  0  0  0  0  0  0  0  0  0
   60.1758   32.9975   30.0898 O   0  0  0  0  0  0  0  0  0  0  0  0
   56.3053   31.0554   31.5451 C   0  0  1  0  0  0  0  0  0  0  0  0
   56.4598   29.5869   31.7118 C   0  0  0  0  0  0  0  0  0  0  0  0
   56.7870   29.0431   32.9565 C   0  0  0  0  0  0  0  0  0  0  0  0
   56.9336   27.6579   33.1222 C   0  0  0  0  0  0  0  0  0  0  0  0
   56.7631   26.7617   32.0556 C   0  0  0  0  0  0  0  0  0  0  0  0
   56.4484   27.3458   30.8135 C   0  0  0  0  0  0  0  0  0  0  0  0
   56.3001   28.7268   30.6259 C   0  0  0  0  0  0  0  0  0  0  0  0
   56.5894   31.8084   32.8557 C   0  0  0  0  0  0  0  0  0  0  0  0
   56.3355   33.2690   32.7542 C   0  0  0  0  0  0  0  0  0  0  0  0
   55.1792   33.7483   32.1334 C   0  0  0  0  0  0  0  0  0  0  0  0
   54.9319   35.1255   32.0346 C   0  0  0  0  0  0  0  0  0  0  0  0
   55.8266   36.0778   32.5467 C   0  0  0  0  0  0  0  0  0  0  0  0
   56.9875   35.5593   33.1524 C   0  0  0  0  0  0  0  0  0  0  0  0
   57.2550   34.1877   33.2591 C   0  0  0  0  0  0  0  0  0  0  0  0
  1  2  2  0
  2  4  1  0
  2  3  1  0
  5  4  1  1
  5  6  1  0
  5 14  1  0
  6  7  1  0
  7  8  2  0
  7 12  1  0
  8  9  1  0
  9 10  2  0
 10 11  1  0
 11 12  2  0
 12 13  1  0
 13 14  1  0
 14 15  2  0
  3 16  1  0
 16 23  1  1
 16 17  1  0
 23 24  1  0
 24 25  2  0
 24 29  1  0
 25 26  1  0
 26 27  2  0
 27 28  1  0
 28 29  2  0
 17 18  2  0
 17 22  1  0
 18 19  1  0
 19 20  2  0
 20 21  1  0
 21 22  2  0
M  END
>  <minimizedAffinity>  (2) 
-6.88159

>  <Compliance>  (2) 
96.29629629629629

$$$$
ligand
     RDKit          3D

 29 32  0  0  0  0  0  0  0  0999 V2000
   55.2422   30.8776   30.1645 O   0  0  0  0  0  0  0  0  0  0  0  0
   56.3414   31.0326   30.6926 C   0  0  0  0  0  0  0  0  0  0  0  0
   57.5672   30.8355   30.0760 N   0  0  0  0  0  0  0  0  0  0  0  0
   56.4742   31.5151   32.1210 C   0  0  0  0  0  0  0  0  0  0  0  0
   57.3313   32.7534   32.2000 C   0  0  1  0  0  0  0  0  0  0  0  0
   57.2138   33.4304   30.9536 O   0  0  0  0  0  0  0  0  0  0  0  0
   57.7654   34.6824   30.9687 C   0  0  0  0  0  0  0  0  0  0  0  0
   58.1778   35.2260   29.7532 C   0  0  0  0  0  0  0  0  0  0  0  0
   58.7150   36.5133   29.7188 C   0  0  0  0  0  0  0  0  0  0  0  0
   58.8244   37.2595   30.8939 C   0  0  0  0  0  0  0  0  0  0  0  0
   58.3927   36.7233   32.1076 C   0  0  0  0  0  0  0  0  0  0  0  0
   57.8647   35.4324   32.1402 C   0  0  0  0  0  0  0  0  0  0  0  0
   57.3766   34.9026   33.3400 N   0  0  0  0  0  0  0  0  0  0  0  0
   56.9720   33.5866   33.4325 C   0  0  0  0  0  0  0  0  0  0  0  0
   56.4477   33.1114   34.4373 O   0  0  0  0  0  0  0  0  0  0  0  0
   57.6969   30.4151   28.7091 C   0  0  1  0  0  0  0  0  0  0  0  0
   58.4093   31.4766   27.9515 C   0  0  0  0  0  0  0  0  0  0  0  0
   59.6046   32.0149   28.4350 C   0  0  0  0  0  0  0  0  0  0  0  0
   60.2835   33.0164   27.7253 C   0  0  0  0  0  0  0  0  0  0  0  0
   59.7978   33.5222   26.5095 C   0  0  0  0  0  0  0  0  0  0  0  0
   58.5841   32.9671   26.0601 C   0  0  0  0  0  0  0  0  0  0  0  0
   57.8887   31.9681   26.7550 C   0  0  0  0  0  0  0  0  0  0  0  0
   58.4740   29.0879   28.6935 C   0  0  0  0  0  0  0  0  0  0  0  0
   57.5881   27.8949   28.7070 C   0  0  0  0  0  0  0  0  0  0  0  0
   56.9115   27.4985   27.5505 C   0  0  0  0  0  0  0  0  0  0  0  0
   56.0744   26.3730   27.5550 C   0  0  0  0  0  0  0  0  0  0  0  0
   55.8763   25.6012   28.7103 C   0  0  0  0  0  0  0  0  0  0  0  0
   56.5622   26.0383   29.8600 C   0  0  0  0  0  0  0  0  0  0  0  0
   57.4008   27.1611   29.8777 C   0  0  0  0  0  0  0  0  0  0  0  0
  1  2  2  0
  2  4  1  0
  2  3  1  0
  5  4  1  6
  5  6  1  0
  5 14  1  0
  6  7  1  0
  7  8  2  0
  7 12  1  0
  8  9  1  0
  9 10  2  0
 10 11  1  0
 11 12  2  0
 12 13  1  0
 13 14  1  0
 14 15  2  0
  3 16  1  0
 16 23  1  1
 16 17  1  0
 23 24  1  0
 24 25  2  0
 24 29  1  0
 25 26  1  0
 26 27  2  0
 27 28  1  0
 28 29  2  0
 17 18  2  0
 17 22  1  0
 18 19  1  0
 19 20  2  0
 20 21  1  0
 21 22  2  0
M  END
>  <minimizedAffinity>  (3) 
-6.64365

>  <Compliance>  (3) 
96.29629629629629

$$$$
ligand
     RDKit          3D

 29 32  0  0  0  0  0  0  0  0999 V2000
   55.1904   30.8515   30.2350 O   0  0  0  0  0  0  0  0  0  0  0  0
   56.2291   30.6569   30.8629 C   0  0  0  0  0  0  0  0  0  0  0  0
   57.3050   29.8993   30.4268 N   0  0  0  0  0  0  0  0  0  0  0  0
   56.4659   31.2859   32.2190 C   0  0  0  0  0  0  0  0  0  0  0  0
   57.1054   32.6450   32.0846 C   0  0  1  0  0  0  0  0  0  0  0  0
   57.7943   32.6680   30.8393 O   0  0  0  0  0  0  0  0  0  0  0  0
   58.2338   33.9164   30.4920 C   0  0  0  0  0  0  0  0  0  0  0  0
   59.3175   34.0048   29.6199 C   0  0  0  0  0  0  0  0  0  0  0  0
   59.7770   35.2581   29.2135 C   0  0  0  0  0  0  0  0  0  0  0  0
   59.1442   36.4177   29.6658 C   0  0  0  0  0  0  0  0  0  0  0  0
   58.0465   36.3288   30.5225 C   0  0  0  0  0  0  0  0  0  0  0  0
   57.5954   35.0745   30.9345 C   0  0  0  0  0  0  0  0  0  0  0  0
   56.4621   34.9675   31.7485 N   0  0  0  0  0  0  0  0  0  0  0  0
   56.0704   33.7555   32.2793 C   0  0  0  0  0  0  0  0  0  0  0  0
   55.0303   33.6027   32.9157 O   0  0  0  0  0  0  0  0  0  0  0  0
   57.3298   29.2355   29.1537 C   0  0  1  0  0  0  0  0  0  0  0  0
   58.1801   30.0233   28.2240 C   0  0  0  0  0  0  0  0  0  0  0  0
   59.5124   29.6653   28.0027 C   0  0  0  0  0  0  0  0  0  0  0  0
   60.3212   30.4034   27.1259 C   0  0  0  0  0  0  0  0  0  0  0  0
   59.8363   31.5268   26.4384 C   0  0  0  0  0  0  0  0  0  0  0  0
   58.4943   31.8667   26.6967 C   0  0  0  0  0  0  0  0  0  0  0  0
   57.6702   31.1447   27.5707 C   0  0  0  0  0  0  0  0  0  0  0  0
   57.8868   27.8182   29.3694 C   0  0  0  0  0  0  0  0  0  0  0  0
   57.0303   26.9847   30.2525 C   0  0  0  0  0  0  0  0  0  0  0  0
   56.8235   27.3432   31.5869 C   0  0  0  0  0  0  0  0  0  0  0  0
   56.0157   26.5622   32.4265 C   0  0  0  0  0  0  0  0  0  0  0  0
   55.3855   25.3936   31.9714 C   0  0  0  0  0  0  0  0  0  0  0  0
   55.6278   25.0553   30.6260 C   0  0  0  0  0  0  0  0  0  0  0  0
   56.4334   25.8200   29.7713 C   0  0  0  0  0  0  0  0  0  0  0  0
  1  2  2  0
  2  4  1  0
  2  3  1  0
  5  4  1  6
  5  6  1  0
  5 14  1  0
  6  7  1  0
  7  8  2  0
  7 12  1  0
  8  9  1  0
  9 10  2  0
 10 11  1  0
 11 12  2  0
 12 13  1  0
 13 14  1  0
 14 15  2  0
  3 16  1  0
 16 23  1  1
 16 17  1  0
 23 24  1  0
 24 25  2  0
 24 29  1  0
 25 26  1  0
 26 27  2  0
 27 28  1  0
 28 29  2  0
 17 18  2  0
 17 22  1  0
 18 19  1  0
 19 20  2  0
 20 21  1  0
 21 22  2  0
M  END
>  <minimizedAffinity>  (4) 
-6.63304

>  <Compliance>  (4) 
96.29629629629629

$$$$
ligand
     RDKit          3D

 29 32  0  0  0  0  0  0  0  0999 V2000
   57.3687   33.2454   32.9125 O   0  0  0  0  0  0  0  0  0  0  0  0
   56.9780   33.0903   31.7573 C   0  0  0  0  0  0  0  0  0  0  0  0
   57.4208   33.8029   30.6538 N   0  0  0  0  0  0  0  0  0  0  0  0
   55.9578   32.0307   31.4005 C   0  0  0  0  0  0  0  0  0  0  0  0
   56.6271   30.7848   30.8772 C   0  0  1  0  0  0  0  0  0  0  0  0
   56.0324   29.6742   31.5393 O   0  0  0  0  0  0  0  0  0  0  0  0
   56.3927   28.4704   30.9977 C   0  0  0  0  0  0  0  0  0  0  0  0
   56.3227   27.3430   31.8144 C   0  0  0  0  0  0  0  0  0  0  0  0
   56.6492   26.0907   31.2927 C   0  0  0  0  0  0  0  0  0  0  0  0
   57.0290   25.9652   29.9550 C   0  0  0  0  0  0  0  0  0  0  0  0
   57.0793   27.0908   29.1319 C   0  0  0  0  0  0  0  0  0  0  0  0
   56.7614   28.3429   29.6589 C   0  0  0  0  0  0  0  0  0  0  0  0
   56.7535   29.4721   28.8323 N   0  0  0  0  0  0  0  0  0  0  0  0
   56.5737   30.7392   29.3483 C   0  0  0  0  0  0  0  0  0  0  0  0
   56.4627   31.7430   28.6480 O   0  0  0  0  0  0  0  0  0  0  0  0
   58.4163   34.8345   30.7364 C   0  0  1  0  0  0  0  0  0  0  0  0
   59.4426   34.5887   29.6903 C   0  0  0  0  0  0  0  0  0  0  0  0
   59.9478   33.3035   29.4778 C   0  0  0  0  0  0  0  0  0  0  0  0
   60.9159   33.0632   28.4916 C   0  0  0  0  0  0  0  0  0  0  0  0
   61.4201   34.0925   27.6816 C   0  0  0  0  0  0  0  0  0  0  0  0
   60.8992   35.3764   27.9333 C   0  0  0  0  0  0  0  0  0  0  0  0
   59.9340   35.6385   28.9150 C   0  0  0  0  0  0  0  0  0  0  0  0
   57.7138   36.1878   30.5355 C   0  0  0  0  0  0  0  0  0  0  0  0
   57.5163   36.9349   31.8047 C   0  0  0  0  0  0  0  0  0  0  0  0
   56.2774   36.9245   32.4506 C   0  0  0  0  0  0  0  0  0  0  0  0
   56.0834   37.6264   33.6495 C   0  0  0  0  0  0  0  0  0  0  0  0
   57.1132   38.3674   34.2495 C   0  0  0  0  0  0  0  0  0  0  0  0
   58.3432   38.3672   33.5637 C   0  0  0  0  0  0  0  0  0  0  0  0
   58.5573   37.6752   32.3638 C   0  0  0  0  0  0  0  0  0  0  0  0
  1  2  2  0
  2  4  1  0
  2  3  1  0
  5  4  1  1
  5  6  1  0
  5 14  1  0
  6  7  1  0
  7  8  2  0
  7 12  1  0
  8  9  1  0
  9 10  2  0
 10 11  1  0
 11 12  2  0
 12 13  1  0
 13 14  1  0
 14 15  2  0
  3 16  1  0
 16 23  1  6
 16 17  1  0
 23 24  1  0
 24 25  2  0
 24 29  1  0
 25 26  1  0
 26 27  2  0
 27 28  1  0
 28 29  2  0
 17 18  2  0
 17 22  1  0
 18 19  1  0
 19 20  2  0
 20 21  1  0
 21 22  2  0
M  END
>  <minimizedAffinity>  (5) 
-6.61827

>  <Compliance>  (5) 
96.29629629629629

$$$$
ligand
     RDKit          3D

 29 32  0  0  0  0  0  0  0  0999 V2000
   56.2575   32.0641   28.3952 O   0  0  0  0  0  0  0  0  0  0  0  0
   57.3448   31.7430   28.8704 C   0  0  0  0  0  0  0  0  0  0  0  0
   57.5318   30.9804   30.0129 N   0  0  0  0  0  0  0  0  0  0  0  0
   58.6474   32.1308   28.2043 C   0  0  0  0  0  0  0  0  0  0  0  0
   59.5941   30.9590   28.1363 C   0  0  1  0  0  0  0  0  0  0  0  0
   58.9408   29.9282   27.4040 O   0  0  0  0  0  0  0  0  0  0  0  0
   59.7720   28.8910   27.0789 C   0  0  0  0  0  0  0  0  0  0  0  0
   59.1948   27.6443   26.8437 C   0  0  0  0  0  0  0  0  0  0  0  0
   60.0024   26.5672   26.4770 C   0  0  0  0  0  0  0  0  0  0  0  0
   61.3801   26.7410   26.3310 C   0  0  0  0  0  0  0  0  0  0  0  0
   61.9554   27.9938   26.5464 C   0  0  0  0  0  0  0  0  0  0  0  0
   61.1466   29.0666   26.9222 C   0  0  0  0  0  0  0  0  0  0  0  0
   61.7009   30.3408   27.0875 N   0  0  0  0  0  0  0  0  0  0  0  0
   60.9553   31.3899   27.5852 C   0  0  0  0  0  0  0  0  0  0  0  0
   61.3750   32.5430   27.6531 O   0  0  0  0  0  0  0  0  0  0  0  0
   56.4444   30.4629   30.7950 C   0  0  1  0  0  0  0  0  0  0  0  0
   56.5114   28.9785   30.7777 C   0  0  0  0  0  0  0  0  0  0  0  0
   56.6935   28.2890   29.5762 C   0  0  0  0  0  0  0  0  0  0  0  0
   56.7589   26.8880   29.5517 C   0  0  0  0  0  0  0  0  0  0  0  0
   56.6427   26.1200   30.7207 C   0  0  0  0  0  0  0  0  0  0  0  0
   56.4457   26.8474   31.9104 C   0  0  0  0  0  0  0  0  0  0  0  0
   56.3748   28.2464   31.9565 C   0  0  0  0  0  0  0  0  0  0  0  0
   56.5799   31.0206   32.2219 C   0  0  0  0  0  0  0  0  0  0  0  0
   56.4301   32.4976   32.2859 C   0  0  0  0  0  0  0  0  0  0  0  0
   57.5305   33.3126   32.5635 C   0  0  0  0  0  0  0  0  0  0  0  0
   57.3974   34.7076   32.6246 C   0  0  0  0  0  0  0  0  0  0  0  0
   56.1645   35.3444   32.4149 C   0  0  0  0  0  0  0  0  0  0  0  0
   55.0751   34.4914   32.1520 C   0  0  0  0  0  0  0  0  0  0  0  0
   55.1859   33.0957   32.0892 C   0  0  0  0  0  0  0  0  0  0  0  0
  1  2  2  0
  2  4  1  0
  2  3  1  0
  5  4  1  6
  5  6  1  0
  5 14  1  0
  6  7  1  0
  7  8  2  0
  7 12  1  0
  8  9  1  0
  9 10  2  0
 10 11  1  0
 11 12  2  0
 12 13  1  0
 13 14  1  0
 14 15  2  0
  3 16  1  0
 16 23  1  1
 16 17  1  0
 23 24  1  0
 24 25  2  0
 24 29  1  0
 25 26  1  0
 26 27  2  0
 27 28  1  0
 28 29  2  0
 17 18  2  0
 17 22  1  0
 18 19  1  0
 19 20  2  0
 20 21  1  0
 21 22  2  0
M  END
>  <minimizedAffinity>  (6) 
-6.54641

>  <Compliance>  (6) 
96.29629629629629

$$$$
ligand
     RDKit          3D

 29 32  0  0  0  0  0  0  0  0999 V2000
   57.2880   32.0376   27.5898 O   0  0  0  0  0  0  0  0  0  0  0  0
   57.3611   32.1789   28.8088 C   0  0  0  0  0  0  0  0  0  0  0  0
   58.5242   32.4170   29.5246 N   0  0  0  0  0  0  0  0  0  0  0  0
   56.1285   32.1462   29.6864 C   0  0  0  0  0  0  0  0  0  0  0  0
   55.9152   30.7742   30.2747 C   0  0  1  0  0  0  0  0  0  0  0  0
   56.5221   29.8360   29.3932 O   0  0  0  0  0  0  0  0  0  0  0  0
   56.5941   28.5746   29.9184 C   0  0  0  0  0  0  0  0  0  0  0  0
   56.6702   27.5036   29.0297 C   0  0  0  0  0  0  0  0  0  0  0  0
   56.7785   26.2028   29.5229 C   0  0  0  0  0  0  0  0  0  0  0  0
   56.8265   25.9764   30.8999 C   0  0  0  0  0  0  0  0  0  0  0  0
   56.7710   27.0500   31.7893 C   0  0  0  0  0  0  0  0  0  0  0  0
   56.6532   28.3487   31.2933 C   0  0  0  0  0  0  0  0  0  0  0  0
   56.6524   29.4389   32.1706 N   0  0  0  0  0  0  0  0  0  0  0  0
   56.4052   30.7208   31.7237 C   0  0  0  0  0  0  0  0  0  0  0  0
   56.4921   31.7140   32.4423 O   0  0  0  0  0  0  0  0  0  0  0  0
   59.8150   32.5291   28.9054 C   0  0  1  0  0  0  0  0  0  0  0  0
   60.1314   33.9698   28.7249 C   0  0  0  0  0  0  0  0  0  0  0  0
   61.1698   34.3692   27.8799 C   0  0  0  0  0  0  0  0  0  0  0  0
   61.4739   35.7272   27.7034 C   0  0  0  0  0  0  0  0  0  0  0  0
   60.7586   36.7387   28.3629 C   0  0  0  0  0  0  0  0  0  0  0  0
   59.7291   36.2989   29.2173 C   0  0  0  0  0  0  0  0  0  0  0  0
   59.4108   34.9476   29.4097 C   0  0  0  0  0  0  0  0  0  0  0  0
   60.8395   31.8329   29.8170 C   0  0  0  0  0  0  0  0  0  0  0  0
   61.8242   31.0123   29.0652 C   0  0  0  0  0  0  0  0  0  0  0  0
   61.4042   30.1563   28.0439 C   0  0  0  0  0  0  0  0  0  0  0  0
   62.3276   29.3793   27.3290 C   0  0  0  0  0  0  0  0  0  0  0  0
   63.7030   29.4221   27.6048 C   0  0  0  0  0  0  0  0  0  0  0  0
   64.0884   30.2845   28.6495 C   0  0  0  0  0  0  0  0  0  0  0  0
   63.1820   31.0671   29.3777 C   0  0  0  0  0  0  0  0  0  0  0  0
  1  2  2  0
  2  4  1  0
  2  3  1  0
  5  4  1  6
  5  6  1  0
  5 14  1  0
  6  7  1  0
  7  8  2  0
  7 12  1  0
  8  9  1  0
  9 10  2  0
 10 11  1  0
 11 12  2  0
 12 13  1  0
 13 14  1  0
 14 15  2  0
  3 16  1  0
 16 23  1  1
 16 17  1  0
 23 24  1  0
 24 25  2  0
 24 29  1  0
 25 26  1  0
 26 27  2  0
 27 28  1  0
 28 29  2  0
 17 18  2  0
 17 22  1  0
 18 19  1  0
 19 20  2  0
 20 21  1  0
 21 22  2  0
M  END
>  <minimizedAffinity>  (7) 
-6.53089

>  <Compliance>  (7) 
96.29629629629629

$$$$
ligand
     RDKit          3D

 29 32  0  0  0  0  0  0  0  0999 V2000
   54.1403   34.1799   32.7276 O   0  0  0  0  0  0  0  0  0  0  0  0
   55.2157   33.9325   32.1859 C   0  0  0  0  0  0  0  0  0  0  0  0
   56.0278   34.8562   31.5465 N   0  0  0  0  0  0  0  0  0  0  0  0
   55.8081   32.5397   32.1978 C   0  0  0  0  0  0  0  0  0  0  0  0
   56.5251   32.2420   30.9051 C   0  0  1  0  0  0  0  0  0  0  0  0
   57.9099   32.4888   31.1219 O   0  0  0  0  0  0  0  0  0  0  0  0
   58.7009   32.0473   30.0965 C   0  0  0  0  0  0  0  0  0  0  0  0
   59.9441   32.6544   29.9264 C   0  0  0  0  0  0  0  0  0  0  0  0
   60.7962   32.2122   28.9138 C   0  0  0  0  0  0  0  0  0  0  0  0
   60.4121   31.1563   28.0849 C   0  0  0  0  0  0  0  0  0  0  0  0
   59.1763   30.5349   28.2682 C   0  0  0  0  0  0  0  0  0  0  0  0
   58.3226   30.9855   29.2754 C   0  0  0  0  0  0  0  0  0  0  0  0
   57.1045   30.3365   29.5070 N   0  0  0  0  0  0  0  0  0  0  0  0
   56.1826   30.8371   30.4035 C   0  0  0  0  0  0  0  0  0  0  0  0
   55.1481   30.2473   30.7069 O   0  0  0  0  0  0  0  0  0  0  0  0
   55.6957   36.2493   31.4408 C   0  0  1  0  0  0  0  0  0  0  0  0
   55.9147   36.8912   32.7629 C   0  0  0  0  0  0  0  0  0  0  0  0
   54.9587   37.7569   33.3002 C   0  0  0  0  0  0  0  0  0  0  0  0
   55.1576   38.3659   34.5481 C   0  0  0  0  0  0  0  0  0  0  0  0
   56.3161   38.1391   35.3072 C   0  0  0  0  0  0  0  0  0  0  0  0
   57.2638   37.2730   34.7285 C   0  0  0  0  0  0  0  0  0  0  0  0
   57.0859   36.6566   33.4824 C   0  0  0  0  0  0  0  0  0  0  0  0
   56.5908   36.8683   30.3541 C   0  0  0  0  0  0  0  0  0  0  0  0
   56.6520   36.0502   29.1151 C   0  0  0  0  0  0  0  0  0  0  0  0
   55.5187   35.8866   28.3144 C   0  0  0  0  0  0  0  0  0  0  0  0
   55.5687   35.1167   27.1428 C   0  0  0  0  0  0  0  0  0  0  0  0
   56.7467   34.4784   26.7251 C   0  0  0  0  0  0  0  0  0  0  0  0
   57.8646   34.6532   27.5636 C   0  0  0  0  0  0  0  0  0  0  0  0
   57.8354   35.4157   28.7392 C   0  0  0  0  0  0  0  0  0  0  0  0
  1  2  2  0
  2  4  1  0
  2  3  1  0
  5  4  1  1
  5  6  1  0
  5 14  1  0
  6  7  1  0
  7  8  2  0
  7 12  1  0
  8  9  1  0
  9 10  2  0
 10 11  1  0
 11 12  2  0
 12 13  1  0
 13 14  1  0
 14 15  2  0
  3 16  1  0
 16 23  1  6
 16 17  1  0
 23 24  1  0
 24 25  2  0
 24 29  1  0
 25 26  1  0
 26 27  2  0
 27 28  1  0
 28 29  2  0
 17 18  2  0
 17 22  1  0
 18 19  1  0
 19 20  2  0
 20 21  1  0
 21 22  2  0
M  END
>  <minimizedAffinity>  (8) 
-6.48076

>  <Compliance>  (8) 
96.29629629629629

$$$$
ligand
     RDKit          3D

 29 32  0  0  0  0  0  0  0  0999 V2000
   56.8882   32.6089   26.5099 O   0  0  0  0  0  0  0  0  0  0  0  0
   56.4125   33.2731   27.4285 C   0  0  0  0  0  0  0  0  0  0  0  0
   56.2646   32.8467   28.7392 N   0  0  0  0  0  0  0  0  0  0  0  0
   55.9571   34.7015   27.2214 C   0  0  0  0  0  0  0  0  0  0  0  0
   55.8592   35.4374   28.5340 C   0  0  1  0  0  0  0  0  0  0  0  0
   57.1733   35.5163   29.0747 O   0  0  0  0  0  0  0  0  0  0  0  0
   57.2600   36.3511   30.1554 C   0  0  0  0  0  0  0  0  0  0  0  0
   58.2956   36.1345   31.0629 C   0  0  0  0  0  0  0  0  0  0  0  0
   58.4405   36.9830   32.1611 C   0  0  0  0  0  0  0  0  0  0  0  0
   57.5621   38.0532   32.3416 C   0  0  0  0  0  0  0  0  0  0  0  0
   56.5380   38.2824   31.4221 C   0  0  0  0  0  0  0  0  0  0  0  0
   56.3898   37.4268   30.3302 C   0  0  0  0  0  0  0  0  0  0  0  0
   55.4026   37.6764   29.3703 N   0  0  0  0  0  0  0  0  0  0  0  0
   55.1451   36.7791   28.3541 C   0  0  0  0  0  0  0  0  0  0  0  0
   54.3574   37.0054   27.4383 O   0  0  0  0  0  0  0  0  0  0  0  0
   56.6621   31.5415   29.1871 C   0  0  1  0  0  0  0  0  0  0  0  0
   58.1461   31.4908   29.2444 C   0  0  0  0  0  0  0  0  0  0  0  0
   58.8591   32.4047   30.0245 C   0  0  0  0  0  0  0  0  0  0  0  0
   60.2600   32.3628   30.0847 C   0  0  0  0  0  0  0  0  0  0  0  0
   61.0044   31.4123   29.3690 C   0  0  0  0  0  0  0  0  0  0  0  0
   60.2539   30.5170   28.5826 C   0  0  0  0  0  0  0  0  0  0  0  0
   58.8547   30.5434   28.5064 C   0  0  0  0  0  0  0  0  0  0  0  0
   56.0322   31.3031   30.5697 C   0  0  0  0  0  0  0  0  0  0  0  0
   56.3096   29.9466   31.1094 C   0  0  0  0  0  0  0  0  0  0  0  0
   56.6911   29.7760   32.4426 C   0  0  0  0  0  0  0  0  0  0  0  0
   56.9537   28.4988   32.9596 C   0  0  0  0  0  0  0  0  0  0  0  0
   56.8496   27.3435   32.1695 C   0  0  0  0  0  0  0  0  0  0  0  0
   56.4771   27.5546   30.8278 C   0  0  0  0  0  0  0  0  0  0  0  0
   56.2130   28.8219   30.2908 C   0  0  0  0  0  0  0  0  0  0  0  0
  1  2  2  0
  2  4  1  0
  2  3  1  0
  5  4  1  6
  5  6  1  0
  5 14  1  0
  6  7  1  0
  7  8  2  0
  7 12  1  0
  8  9  1  0
  9 10  2  0
 10 11  1  0
 11 12  2  0
 12 13  1  0
 13 14  1  0
 14 15  2  0
  3 16  1  0
 16 23  1  1
 16 17  1  0
 23 24  1  0
 24 25  2  0
 24 29  1  0
 25 26  1  0
 26 27  2  0
 27 28  1  0
 28 29  2  0
 17 18  2  0
 17 22  1  0
 18 19  1  0
 19 20  2  0
 20 21  1  0
 21 22  2  0
M  END
>  <minimizedAffinity>  (9) 
-6.43241

>  <Compliance>  (9) 
96.29629629629629

$$$$
