ligand
  PyMOL3.1          3D                             0

 16 17  0  0  0  0  0  0  0  0999 V2000
  134.9232  115.8192  154.9213 C   0  0  0  0  0  0  0  0  0  0  0  0
  134.3767  115.0967  153.6847 C   0  0  0  0  0  0  0  0  0  0  0  0
  133.4544  115.9946  152.8704 C   0  0  0  0  0  0  0  0  0  0  0  0
  133.7626  116.3696  155.7687 C   0  0  0  0  0  0  0  0  0  0  0  0
  132.8584  117.2748  154.9420 C   0  0  0  0  0  0  0  0  0  0  0  0
  132.3322  116.5064  153.7476 N   0  3  0  0  0  0  0  0  0  0  0  0
  131.8403  115.6716  154.0969 H   0  0  0  0  0  0  0  0  0  0  0  0
  136.8723  115.3024  156.5038 C   0  0  0  0  0  0  0  0  0  0  0  0
  137.4426  114.1971  156.9243 N   0  0  0  0  0  0  0  0  0  0  0  0
  136.7529  113.1716  156.3282 N   0  0  0  0  0  0  0  0  0  0  0  0
  135.7768  113.6353  155.5595 N   0  0  0  0  0  0  0  0  0  0  0  0
  135.8485  114.9812  155.6491 N   0  0  0  0  0  0  0  0  0  0  0  0
  137.3864  117.5105  155.7053 O   0  0  0  0  0  0  0  0  0  0  0  0
  137.2526  116.6780  156.8605 C   0  0  0  0  0  0  0  0  0  0  0  0
  138.1380  117.1850  155.1492 H   0  0  0  0  0  0  0  0  0  0  0  0
  131.3422  117.3105  152.9969 C   0  0  0  0  0  0  0  0  0  0  0  0
  1  2  1  0  0  0  0
  1  4  1  0  0  0  0
  1 12  1  0  0  0  0
  2  3  1  0  0  0  0
  3  6  1  0  0  0  0
  4  5  1  0  0  0  0
  5  6  1  0  0  0  0
  6  7  1  0  0  0  0
  6 16  1  0  0  0  0
  8  9  2  0  0  0  0
  8 12  1  0  0  0  0
  8 14  1  0  0  0  0
  9 10  1  0  0  0  0
 10 11  2  0  0  0  0
 11 12  1  0  0  0  0
 13 14  1  0  0  0  0
 13 15  1  0  0  0  0
M  END
>  <minimizedAffinity>
-11.390230

$$$$
