ligand


  6  6  0  0  0  0  0  0  0  0999 V2000
    1.6166    3.7629   17.9778 C   0  0  0  0  0  0  0  0  0  0  0  0
    2.1319    4.9534   18.5116 C   0  0  0  0  0  0  0  0  0  0  0  0
    2.0532    5.2464   19.8819 C   0  0  0  0  0  0  0  0  0  0  0  0
    1.4356    4.2644   20.6803 C   0  0  0  0  0  0  0  0  0  0  0  0
    0.9168    3.0675   20.1677 C   0  0  0  0  0  0  0  0  0  0  0  0
    0.9971    2.8169   18.7983 C   0  0  0  0  0  0  0  0  0  0  0  0
  1  2  2  0  0  0
  2  3  1  0  0  0
  3  4  2  0  0  0
  4  5  1  0  0  0
  5  6  2  0  0  0
  6  1  1  0  0  0
M  END
> <minimizedAffinity>
-3.85943

$$$$
ligand


  6  6  0  0  0  0  0  0  0  0999 V2000
    1.5080    4.2932   20.7528 C   0  0  0  0  0  0  0  0  0  0  0  0
    0.9777    3.0806   20.2881 C   0  0  0  0  0  0  0  0  0  0  0  0
    0.9712    2.7486   18.9245 C   0  0  0  0  0  0  0  0  0  0  0  0
    1.5403    3.7054   18.0619 C   0  0  0  0  0  0  0  0  0  0  0  0
    2.0777    4.9214   18.5057 C   0  0  0  0  0  0  0  0  0  0  0  0
    2.0519    5.2259   19.8661 C   0  0  0  0  0  0  0  0  0  0  0  0
  1  2  2  0  0  0
  2  3  1  0  0  0
  3  4  2  0  0  0
  4  5  1  0  0  0
  5  6  2  0  0  0
  6  1  1  0  0  0
M  END
> <minimizedAffinity>
-3.85074

$$$$
ligand


  6  6  0  0  0  0  0  0  0  0999 V2000
    2.1362    4.8991   18.3413 C   0  0  0  0  0  0  0  0  0  0  0  0
    1.5195    3.6689   18.0689 C   0  0  0  0  0  0  0  0  0  0  0  0
    0.9476    2.8858   19.0835 C   0  0  0  0  0  0  0  0  0  0  0  0
    1.0247    3.4219   20.3835 C   0  0  0  0  0  0  0  0  0  0  0  0
    1.6337    4.6498   20.6767 C   0  0  0  0  0  0  0  0  0  0  0  0
    2.2070    5.3936   19.6460 C   0  0  0  0  0  0  0  0  0  0  0  0
  1  2  2  0  0  0
  2  3  1  0  0  0
  3  4  2  0  0  0
  4  5  1  0  0  0
  5  6  2  0  0  0
  6  1  1  0  0  0
M  END
> <minimizedAffinity>
-3.84406

$$$$
ligand


  6  6  0  0  0  0  0  0  0  0999 V2000
    1.5628    4.5305   20.6472 C   0  0  0  0  0  0  0  0  0  0  0  0
    2.1324    5.3621   19.6716 C   0  0  0  0  0  0  0  0  0  0  0  0
    2.1658    4.9994   18.3163 C   0  0  0  0  0  0  0  0  0  0  0  0
    1.5818    3.7566   18.0036 C   0  0  0  0  0  0  0  0  0  0  0  0
    1.0053    2.9122   18.9622 C   0  0  0  0  0  0  0  0  0  0  0  0
    1.0049    3.2968   20.3025 C   0  0  0  0  0  0  0  0  0  0  0  0
  1  2  2  0  0  0
  2  3  1  0  0  0
  3  4  2  0  0  0
  4  5  1  0  0  0
  5  6  2  0  0  0
  6  1  1  0  0  0
M  END
> <minimizedAffinity>
-3.84166

$$$$
ligand


  6  6  0  0  0  0  0  0  0  0999 V2000
    1.0150    2.8516   19.0218 C   0  0  0  0  0  0  0  0  0  0  0  0
    1.0008    3.2762   20.3586 C   0  0  0  0  0  0  0  0  0  0  0  0
    1.5570    4.5030   20.7525 C   0  0  0  0  0  0  0  0  0  0  0  0
    2.1164    5.2784   19.7185 C   0  0  0  0  0  0  0  0  0  0  0  0
    2.1385    4.8741   18.3767 C   0  0  0  0  0  0  0  0  0  0  0  0
    1.5918    3.6409   18.0236 C   0  0  0  0  0  0  0  0  0  0  0  0
  1  2  2  0  0  0
  2  3  1  0  0  0
  3  4  2  0  0  0
  4  5  1  0  0  0
  5  6  2  0  0  0
  6  1  1  0  0  0
M  END
> <minimizedAffinity>
-3.83419

$$$$
ligand


  6  6  0  0  0  0  0  0  0  0999 V2000
    2.1908    5.3925   19.5787 C   0  0  0  0  0  0  0  0  0  0  0  0
    1.6791    4.6772   20.6714 C   0  0  0  0  0  0  0  0  0  0  0  0
    1.0533    3.4309   20.5139 C   0  0  0  0  0  0  0  0  0  0  0  0
    0.9853    2.9459   19.1936 C   0  0  0  0  0  0  0  0  0  0  0  0
    1.4925    3.6430   18.0885 C   0  0  0  0  0  0  0  0  0  0  0  0
    2.0929    4.8869   18.2799 C   0  0  0  0  0  0  0  0  0  0  0  0
  1  2  2  0  0  0
  2  3  1  0  0  0
  3  4  2  0  0  0
  4  5  1  0  0  0
  5  6  2  0  0  0
  6  1  1  0  0  0
M  END
> <minimizedAffinity>
-3.83354

$$$$
ligand


  6  6  0  0  0  0  0  0  0  0999 V2000
    3.3445    2.6241   20.4869 C   0  0  0  0  0  0  0  0  0  0  0  0
    3.0758    2.1884   19.1809 C   0  0  0  0  0  0  0  0  0  0  0  0
    1.7980    2.2986   18.6109 C   0  0  0  0  0  0  0  0  0  0  0  0
    0.8136    2.8835   19.4308 C   0  0  0  0  0  0  0  0  0  0  0  0
    1.0616    3.3277   20.7368 C   0  0  0  0  0  0  0  0  0  0  0  0
    2.3392    3.1868   21.2774 C   0  0  0  0  0  0  0  0  0  0  0  0
  1  2  2  0  0  0
  2  3  1  0  0  0
  3  4  2  0  0  0
  4  5  1  0  0  0
  5  6  2  0  0  0
  6  1  1  0  0  0
M  END
> <minimizedAffinity>
-3.61936

$$$$
ligand


  6  6  0  0  0  0  0  0  0  0999 V2000
    0.8475    2.8062   19.3175 C   0  0  0  0  0  0  0  0  0  0  0  0
    1.0501    3.2433   20.6350 C   0  0  0  0  0  0  0  0  0  0  0  0
    2.3051    3.1628   21.2580 C   0  0  0  0  0  0  0  0  0  0  0  0
    3.3427    2.6273   20.4707 C   0  0  0  0  0  0  0  0  0  0  0  0
    3.1624    2.1874   19.1522 C   0  0  0  0  0  0  0  0  0  0  0  0
    1.8977    2.2665   18.5705 C   0  0  0  0  0  0  0  0  0  0  0  0
  1  2  2  0  0  0
  2  3  1  0  0  0
  3  4  2  0  0  0
  4  5  1  0  0  0
  5  6  2  0  0  0
  6  1  1  0  0  0
M  END
> <minimizedAffinity>
-3.60521

$$$$
ligand


  6  6  0  0  0  0  0  0  0  0999 V2000
    3.6912    2.8597   17.6977 C   0  0  0  0  0  0  0  0  0  0  0  0
    2.9344    3.9994   17.3877 C   0  0  0  0  0  0  0  0  0  0  0  0
    1.6238    4.1698   17.8599 C   0  0  0  0  0  0  0  0  0  0  0  0
    1.1283    3.1301   18.6704 C   0  0  0  0  0  0  0  0  0  0  0  0
    1.8685    1.9848   18.9942 C   0  0  0  0  0  0  0  0  0  0  0  0
    3.1618    1.8407   18.4934 C   0  0  0  0  0  0  0  0  0  0  0  0
  1  2  2  0  0  0
  2  3  1  0  0  0
  3  4  2  0  0  0
  4  5  1  0  0  0
  5  6  2  0  0  0
  6  1  1  0  0  0
M  END
> <minimizedAffinity>
-3.56974

$$$$
