ligand
     RDKit          3D

 29 32  0  0  0  0  0  0  0  0999 V2000
    3.9994   -2.1905   -2.6502 O   0  0  0  0  0  0  0  0  0  0  0  0
    4.3593   -1.6104   -1.6279 C   0  0  0  0  0  0  0  0  0  0  0  0
    3.5184   -1.1147   -0.6436 N   0  0  0  0  0  0  0  0  0  0  0  0
    5.8239   -1.4052   -1.3061 C   0  0  0  0  0  0  0  0  0  0  0  0
    6.6390   -1.2351   -2.5634 C   0  0  1  0  0  0  0  0  0  0  0  0
    7.2858    0.0300   -2.4813 O   0  0  0  0  0  0  0  0  0  0  0  0
    8.2298    0.2145   -3.4544 C   0  0  0  0  0  0  0  0  0  0  0  0
    8.5504    1.5237   -3.8095 C   0  0  0  0  0  0  0  0  0  0  0  0
    9.5315    1.7575   -4.7737 C   0  0  0  0  0  0  0  0  0  0  0  0
   10.2002    0.6857   -5.3685 C   0  0  0  0  0  0  0  0  0  0  0  0
    9.8938   -0.6242   -4.9983 C   0  0  0  0  0  0  0  0  0  0  0  0
    8.9057   -0.8551   -4.0408 C   0  0  0  0  0  0  0  0  0  0  0  0
    8.6267   -2.1600   -3.6192 N   0  0  0  0  0  0  0  0  0  0  0  0
    7.5691   -2.4319   -2.7754 C   0  0  0  0  0  0  0  0  0  0  0  0
    7.3507   -3.5462   -2.3055 O   0  0  0  0  0  0  0  0  0  0  0  0
    2.0881   -1.2256   -0.7076 C   0  0  1  0  0  0  0  0  0  0  0  0
    1.6775   -2.4754   -0.0165 C   0  0  0  0  0  0  0  0  0  0  0  0
    2.0629   -2.7169    1.3046 C   0  0  0  0  0  0  0  0  0  0  0  0
    1.6784   -3.8937    1.9641 C   0  0  0  0  0  0  0  0  0  0  0  0
    0.8987   -4.8758    1.3337 C   0  0  0  0  0  0  0  0  0  0  0  0
    0.5412   -4.6056   -0.0013 C   0  0  0  0  0  0  0  0  0  0  0  0
    0.9169   -3.4379   -0.6793 C   0  0  0  0  0  0  0  0  0  0  0  0
    1.4860    0.0193   -0.0345 C   0  0  0  0  0  0  0  0  0  0  0  0
    0.0006    0.0383   -0.0691 C   0  0  0  0  0  0  0  0  0  0  0  0
   -0.7389    0.0019    1.1159 C   0  0  0  0  0  0  0  0  0  0  0  0
   -2.1412    0.0206    1.0915 C   0  0  0  0  0  0  0  0  0  0  0  0
   -2.8610    0.0732   -0.1122 C   0  0  0  0  0  0  0  0  0  0  0  0
   -2.0837    0.0940   -1.2864 C   0  0  0  0  0  0  0  0  0  0  0  0
   -0.6823    0.0733   -1.2843 C   0  0  0  0  0  0  0  0  0  0  0  0
  1  2  2  0
  2  4  1  0
  2  3  1  0
  5  4  1  1
  5  6  1  0
  5 14  1  0
  6  7  1  0
  7  8  2  0
  7 12  1  0
  8  9  1  0
  9 10  2  0
 10 11  1  0
 11 12  2  0
 12 13  1  0
 13 14  1  0
 14 15  2  0
  3 16  1  0
 16 23  1  1
 16 17  1  0
 23 24  1  0
 24 25  2  0
 24 29  1  0
 25 26  1  0
 26 27  2  0
 27 28  1  0
 28 29  2  0
 17 18  2  0
 17 22  1  0
 18 19  1  0
 19 20  2  0
 20 21  1  0
 21 22  2  0
M  END
>  <minimizedAffinity>  (1) 
0.00000

>  <minimizedRMSD>  (1) 
1.56315

>  <Compliance>  (1) 
92.5925925925926

$$$$
