ligand
     RDKit          3D

 29 32  0  0  0  0  0  0  0  0999 V2000
   55.9868   31.9872   28.4374 O   0  0  0  0  0  0  0  0  0  0  0  0
   57.1141   31.7600   28.8716 C   0  0  0  0  0  0  0  0  0  0  0  0
   57.4050   31.0669   30.0363 N   0  0  0  0  0  0  0  0  0  0  0  0
   58.3552   32.1982   28.1243 C   0  0  0  0  0  0  0  0  0  0  0  0
   59.5800   31.4824   28.6358 C   0  0  1  0  0  0  0  0  0  0  0  0
   60.3205   31.0459   27.5015 O   0  0  0  0  0  0  0  0  0  0  0  0
   61.5651   30.5759   27.8212 C   0  0  0  0  0  0  0  0  0  0  0  0
   62.1659   29.6761   26.9424 C   0  0  0  0  0  0  0  0  0  0  0  0
   63.4483   29.1976   27.2133 C   0  0  0  0  0  0  0  0  0  0  0  0
   64.1328   29.6301   28.3508 C   0  0  0  0  0  0  0  0  0  0  0  0
   63.5396   30.5466   29.2198 C   0  0  0  0  0  0  0  0  0  0  0  0
   62.2536   31.0160   28.9513 C   0  0  0  0  0  0  0  0  0  0  0  0
   61.6680   31.9769   29.7832 N   0  0  0  0  0  0  0  0  0  0  0  0
   60.3527   32.3618   29.6216 C   0  0  0  0  0  0  0  0  0  0  0  0
   59.8319   33.2697   30.2656 O   0  0  0  0  0  0  0  0  0  0  0  0
   56.3924   30.5188   30.8944 C   0  0  1  0  0  0  0  0  0  0  0  0
   56.5026   29.0370   30.8723 C   0  0  0  0  0  0  0  0  0  0  0  0
   56.7294   28.3587   29.6721 C   0  0  0  0  0  0  0  0  0  0  0  0
   56.8356   26.9602   29.6432 C   0  0  0  0  0  0  0  0  0  0  0  0
   56.7174   26.1837   30.8063 C   0  0  0  0  0  0  0  0  0  0  0  0
   56.4748   26.8995   31.9946 C   0  0  0  0  0  0  0  0  0  0  0  0
   56.3627   28.2956   32.0450 C   0  0  0  0  0  0  0  0  0  0  0  0
   56.6130   31.0833   32.3079 C   0  0  0  0  0  0  0  0  0  0  0  0
   56.4248   32.5555   32.3822 C   0  0  0  0  0  0  0  0  0  0  0  0
   57.4627   33.3840   32.8164 C   0  0  0  0  0  0  0  0  0  0  0  0
   57.2931   34.7746   32.8884 C   0  0  0  0  0  0  0  0  0  0  0  0
   56.0841   35.3932   32.5342 C   0  0  0  0  0  0  0  0  0  0  0  0
   55.0561   34.5264   32.1153 C   0  0  0  0  0  0  0  0  0  0  0  0
   55.2038   33.1348   32.0388 C   0  0  0  0  0  0  0  0  0  0  0  0
  1  2  2  0
  2  4  1  0
  2  3  1  0
  5  4  1  6
  5  6  1  0
  5 14  1  0
  6  7  1  0
  7  8  2  0
  7 12  1  0
  8  9  1  0
  9 10  2  0
 10 11  1  0
 11 12  2  0
 12 13  1  0
 13 14  1  0
 14 15  2  0
  3 16  1  0
 16 23  1  1
 16 17  1  0
 23 24  1  0
 24 25  2  0
 24 29  1  0
 25 26  1  0
 26 27  2  0
 27 28  1  0
 28 29  2  0
 17 18  2  0
 17 22  1  0
 18 19  1  0
 19 20  2  0
 20 21  1  0
 21 22  2  0
M  END
>  <minimizedAffinity>  (1) 
-7.08953

>  <Compliance>  (1) 
100.0

$$$$
ligand
     RDKit          3D

 29 32  0  0  0  0  0  0  0  0999 V2000
   55.7885   31.6610   28.7243 O   0  0  0  0  0  0  0  0  0  0  0  0
   56.9046   31.8039   29.2193 C   0  0  0  0  0  0  0  0  0  0  0  0
   57.2390   31.5511   30.5407 N   0  0  0  0  0  0  0  0  0  0  0  0
   58.0889   32.2514   28.3899 C   0  0  0  0  0  0  0  0  0  0  0  0
   58.3456   33.7277   28.5594 C   0  0  1  0  0  0  0  0  0  0  0  0
   57.0806   34.3644   28.7006 O   0  0  0  0  0  0  0  0  0  0  0  0
   57.1787   35.6748   29.0821 C   0  0  0  0  0  0  0  0  0  0  0  0
   56.1212   36.5254   28.7644 C   0  0  0  0  0  0  0  0  0  0  0  0
   56.1655   37.8617   29.1637 C   0  0  0  0  0  0  0  0  0  0  0  0
   57.2564   38.3406   29.8917 C   0  0  0  0  0  0  0  0  0  0  0  0
   58.3056   37.4842   30.2276 C   0  0  0  0  0  0  0  0  0  0  0  0
   58.2628   36.1510   29.8188 C   0  0  0  0  0  0  0  0  0  0  0  0
   59.2804   35.2672   30.1955 N   0  0  0  0  0  0  0  0  0  0  0  0
   59.3354   33.9809   29.6990 C   0  0  0  0  0  0  0  0  0  0  0  0
   60.1531   33.1459   30.0789 O   0  0  0  0  0  0  0  0  0  0  0  0
   56.2915   31.0794   31.5112 C   0  0  1  0  0  0  0  0  0  0  0  0
   56.4559   29.6101   31.6599 C   0  0  0  0  0  0  0  0  0  0  0  0
   56.7804   29.0527   32.8993 C   0  0  0  0  0  0  0  0  0  0  0  0
   56.9363   27.6666   33.0480 C   0  0  0  0  0  0  0  0  0  0  0  0
   56.7781   26.7830   31.9691 C   0  0  0  0  0  0  0  0  0  0  0  0
   56.4657   27.3808   30.7328 C   0  0  0  0  0  0  0  0  0  0  0  0
   56.3083   28.7629   30.5622 C   0  0  0  0  0  0  0  0  0  0  0  0
   56.5607   31.8173   32.8334 C   0  0  0  0  0  0  0  0  0  0  0  0
   56.3218   33.2812   32.7418 C   0  0  0  0  0  0  0  0  0  0  0  0
   55.1559   33.7758   32.1518 C   0  0  0  0  0  0  0  0  0  0  0  0
   54.9226   35.1561   32.0625 C   0  0  0  0  0  0  0  0  0  0  0  0
   55.8414   36.0964   32.5538 C   0  0  0  0  0  0  0  0  0  0  0  0
   57.0111   35.5625   33.1284 C   0  0  0  0  0  0  0  0  0  0  0  0
   57.2648   34.1875   33.2252 C   0  0  0  0  0  0  0  0  0  0  0  0
  1  2  2  0
  2  4  1  0
  2  3  1  0
  5  4  1  1
  5  6  1  0
  5 14  1  0
  6  7  1  0
  7  8  2  0
  7 12  1  0
  8  9  1  0
  9 10  2  0
 10 11  1  0
 11 12  2  0
 12 13  1  0
 13 14  1  0
 14 15  2  0
  3 16  1  0
 16 23  1  1
 16 17  1  0
 23 24  1  0
 24 25  2  0
 24 29  1  0
 25 26  1  0
 26 27  2  0
 27 28  1  0
 28 29  2  0
 17 18  2  0
 17 22  1  0
 18 19  1  0
 19 20  2  0
 20 21  1  0
 21 22  2  0
M  END
>  <minimizedAffinity>  (2) 
-6.87955

>  <Compliance>  (2) 
96.0

$$$$
ligand
     RDKit          3D

 29 32  0  0  0  0  0  0  0  0999 V2000
   57.1697   33.2576   32.9640 O   0  0  0  0  0  0  0  0  0  0  0  0
   56.8397   33.0700   31.7948 C   0  0  0  0  0  0  0  0  0  0  0  0
   57.3298   33.7615   30.6979 N   0  0  0  0  0  0  0  0  0  0  0  0
   55.8510   31.9895   31.4132 C   0  0  0  0  0  0  0  0  0  0  0  0
   56.5583   30.7629   30.8943 C   0  0  1  0  0  0  0  0  0  0  0  0
   55.9882   29.6357   31.5499 O   0  0  0  0  0  0  0  0  0  0  0  0
   56.3856   28.4428   31.0101 C   0  0  0  0  0  0  0  0  0  0  0  0
   56.3390   27.3128   31.8248 C   0  0  0  0  0  0  0  0  0  0  0  0
   56.7038   26.0705   31.3045 C   0  0  0  0  0  0  0  0  0  0  0  0
   57.0984   25.9573   29.9699 C   0  0  0  0  0  0  0  0  0  0  0  0
   57.1253   27.0850   29.1487 C   0  0  0  0  0  0  0  0  0  0  0  0
   56.7691   28.3272   29.6743 C   0  0  0  0  0  0  0  0  0  0  0  0
   56.7378   29.4569   28.8490 N   0  0  0  0  0  0  0  0  0  0  0  0
   56.5194   30.7180   29.3649 C   0  0  0  0  0  0  0  0  0  0  0  0
   56.3873   31.7194   28.6649 O   0  0  0  0  0  0  0  0  0  0  0  0
   58.3082   34.8072   30.8052 C   0  0  1  0  0  0  0  0  0  0  0  0
   59.3513   34.5895   29.7695 C   0  0  0  0  0  0  0  0  0  0  0  0
   59.8484   35.6618   29.0246 C   0  0  0  0  0  0  0  0  0  0  0  0
   60.8338   35.4646   28.0459 C   0  0  0  0  0  0  0  0  0  0  0  0
   61.3597   34.1931   27.7693 C   0  0  0  0  0  0  0  0  0  0  0  0
   60.8252   33.1344   28.5288 C   0  0  0  0  0  0  0  0  0  0  0  0
   59.8389   33.3094   29.5090 C   0  0  0  0  0  0  0  0  0  0  0  0
   57.5874   36.1518   30.6109 C   0  0  0  0  0  0  0  0  0  0  0  0
   57.4208   36.9109   31.8775 C   0  0  0  0  0  0  0  0  0  0  0  0
   56.1836   36.9500   32.5257 C   0  0  0  0  0  0  0  0  0  0  0  0
   56.0186   37.6635   33.7221 C   0  0  0  0  0  0  0  0  0  0  0  0
   57.0769   38.3673   34.3173 C   0  0  0  0  0  0  0  0  0  0  0  0
   58.3048   38.3178   33.6292 C   0  0  0  0  0  0  0  0  0  0  0  0
   58.4902   37.6134   32.4318 C   0  0  0  0  0  0  0  0  0  0  0  0
  1  2  2  0
  2  4  1  0
  2  3  1  0
  5  4  1  1
  5  6  1  0
  5 14  1  0
  6  7  1  0
  7  8  2  0
  7 12  1  0
  8  9  1  0
  9 10  2  0
 10 11  1  0
 11 12  2  0
 12 13  1  0
 13 14  1  0
 14 15  2  0
  3 16  1  0
 16 23  1  6
 16 17  1  0
 23 24  1  0
 24 25  2  0
 24 29  1  0
 25 26  1  0
 26 27  2  0
 27 28  1  0
 28 29  2  0
 17 18  2  0
 17 22  1  0
 18 19  1  0
 19 20  2  0
 20 21  1  0
 21 22  2  0
M  END
>  <minimizedAffinity>  (3) 
-6.64540

>  <Compliance>  (3) 
96.0

$$$$
ligand
     RDKit          3D

 29 32  0  0  0  0  0  0  0  0999 V2000
   55.2305   30.8784   30.1467 O   0  0  0  0  0  0  0  0  0  0  0  0
   56.3314   31.0213   30.6747 C   0  0  0  0  0  0  0  0  0  0  0  0
   57.5550   30.8167   30.0561 N   0  0  0  0  0  0  0  0  0  0  0  0
   56.4694   31.4952   32.1055 C   0  0  0  0  0  0  0  0  0  0  0  0
   57.3304   32.7304   32.1892 C   0  0  1  0  0  0  0  0  0  0  0  0
   57.2380   33.3973   30.9353 O   0  0  0  0  0  0  0  0  0  0  0  0
   57.7948   34.6471   30.9496 C   0  0  0  0  0  0  0  0  0  0  0  0
   58.2310   35.1786   29.7371 C   0  0  0  0  0  0  0  0  0  0  0  0
   58.7745   36.4632   29.7014 C   0  0  0  0  0  0  0  0  0  0  0  0
   58.8664   37.2188   30.8720 C   0  0  0  0  0  0  0  0  0  0  0  0
   58.4110   36.6949   32.0823 C   0  0  0  0  0  0  0  0  0  0  0  0
   57.8767   35.4065   32.1164 C   0  0  0  0  0  0  0  0  0  0  0  0
   57.3652   34.8890   33.3117 N   0  0  0  0  0  0  0  0  0  0  0  0
   56.9532   33.5756   33.4081 C   0  0  0  0  0  0  0  0  0  0  0  0
   56.4091   33.1112   34.4074 O   0  0  0  0  0  0  0  0  0  0  0  0
   57.6801   30.4023   28.6869 C   0  0  1  0  0  0  0  0  0  0  0  0
   58.3823   31.4708   27.9298 C   0  0  0  0  0  0  0  0  0  0  0  0
   59.6702   31.8716   28.2943 C   0  0  0  0  0  0  0  0  0  0  0  0
   60.3401   32.8787   27.5840 C   0  0  0  0  0  0  0  0  0  0  0  0
   59.7532   33.5271   26.4863 C   0  0  0  0  0  0  0  0  0  0  0  0
   58.4499   33.1080   26.1565 C   0  0  0  0  0  0  0  0  0  0  0  0
   57.7621   32.1059   26.8544 C   0  0  0  0  0  0  0  0  0  0  0  0
   58.4647   29.0798   28.6623 C   0  0  0  0  0  0  0  0  0  0  0  0
   57.5860   27.8816   28.6779 C   0  0  0  0  0  0  0  0  0  0  0  0
   56.8966   27.4903   27.5273 C   0  0  0  0  0  0  0  0  0  0  0  0
   56.0660   26.3599   27.5338 C   0  0  0  0  0  0  0  0  0  0  0  0
   55.8875   25.5779   28.6855 C   0  0  0  0  0  0  0  0  0  0  0  0
   56.5859   26.0100   29.8295 C   0  0  0  0  0  0  0  0  0  0  0  0
   57.4183   27.1375   29.8452 C   0  0  0  0  0  0  0  0  0  0  0  0
  1  2  2  0
  2  4  1  0
  2  3  1  0
  5  4  1  6
  5  6  1  0
  5 14  1  0
  6  7  1  0
  7  8  2  0
  7 12  1  0
  8  9  1  0
  9 10  2  0
 10 11  1  0
 11 12  2  0
 12 13  1  0
 13 14  1  0
 14 15  2  0
  3 16  1  0
 16 23  1  1
 16 17  1  0
 23 24  1  0
 24 25  2  0
 24 29  1  0
 25 26  1  0
 26 27  2  0
 27 28  1  0
 28 29  2  0
 17 18  2  0
 17 22  1  0
 18 19  1  0
 19 20  2  0
 20 21  1  0
 21 22  2  0
M  END
>  <minimizedAffinity>  (4) 
-6.64486

>  <Compliance>  (4) 
96.0

$$$$
ligand
     RDKit          3D

 29 32  0  0  0  0  0  0  0  0999 V2000
   55.1838   30.8378   30.2400 O   0  0  0  0  0  0  0  0  0  0  0  0
   56.2365   30.6724   30.8528 C   0  0  0  0  0  0  0  0  0  0  0  0
   57.3291   29.9502   30.3983 N   0  0  0  0  0  0  0  0  0  0  0  0
   56.4726   31.3021   32.2087 C   0  0  0  0  0  0  0  0  0  0  0  0
   57.1133   32.6605   32.0740 C   0  0  1  0  0  0  0  0  0  0  0  0
   57.8026   32.6825   30.8290 O   0  0  0  0  0  0  0  0  0  0  0  0
   58.2434   33.9303   30.4813 C   0  0  0  0  0  0  0  0  0  0  0  0
   59.3275   34.0174   29.6096 C   0  0  0  0  0  0  0  0  0  0  0  0
   59.7882   35.2702   29.2030 C   0  0  0  0  0  0  0  0  0  0  0  0
   59.1563   36.4305   29.6546 C   0  0  0  0  0  0  0  0  0  0  0  0
   58.0582   36.3429   30.5110 C   0  0  0  0  0  0  0  0  0  0  0  0
   57.6058   35.0892   30.9232 C   0  0  0  0  0  0  0  0  0  0  0  0
   56.4722   34.9835   31.7369 N   0  0  0  0  0  0  0  0  0  0  0  0
   56.0792   33.7720   32.2680 C   0  0  0  0  0  0  0  0  0  0  0  0
   55.0387   33.6203   32.9041 O   0  0  0  0  0  0  0  0  0  0  0  0
   57.3567   29.2934   29.1216 C   0  0  1  0  0  0  0  0  0  0  0  0
   58.1761   30.1074   28.1866 C   0  0  0  0  0  0  0  0  0  0  0  0
   59.5127   29.7810   27.9437 C   0  0  0  0  0  0  0  0  0  0  0  0
   60.2924   30.5438   27.0617 C   0  0  0  0  0  0  0  0  0  0  0  0
   59.7731   31.6615   26.3905 C   0  0  0  0  0  0  0  0  0  0  0  0
   58.4276   31.9694   26.6704 C   0  0  0  0  0  0  0  0  0  0  0  0
   57.6322   31.2223   27.5498 C   0  0  0  0  0  0  0  0  0  0  0  0
   57.9524   27.8900   29.3238 C   0  0  0  0  0  0  0  0  0  0  0  0
   57.0621   26.9861   30.0976 C   0  0  0  0  0  0  0  0  0  0  0  0
   56.7946   27.2350   31.4462 C   0  0  0  0  0  0  0  0  0  0  0  0
   55.9546   26.3870   32.1831 C   0  0  0  0  0  0  0  0  0  0  0  0
   55.3513   25.2582   31.6073 C   0  0  0  0  0  0  0  0  0  0  0  0
   55.6547   25.0305   30.2510 C   0  0  0  0  0  0  0  0  0  0  0  0
   56.4932   25.8633   29.4977 C   0  0  0  0  0  0  0  0  0  0  0  0
  1  2  2  0
  2  4  1  0
  2  3  1  0
  5  4  1  6
  5  6  1  0
  5 14  1  0
  6  7  1  0
  7  8  2  0
  7 12  1  0
  8  9  1  0
  9 10  2  0
 10 11  1  0
 11 12  2  0
 12 13  1  0
 13 14  1  0
 14 15  2  0
  3 16  1  0
 16 23  1  1
 16 17  1  0
 23 24  1  0
 24 25  2  0
 24 29  1  0
 25 26  1  0
 26 27  2  0
 27 28  1  0
 28 29  2  0
 17 18  2  0
 17 22  1  0
 18 19  1  0
 19 20  2  0
 20 21  1  0
 21 22  2  0
M  END
>  <minimizedAffinity>  (5) 
-6.62176

>  <Compliance>  (5) 
96.0

$$$$
ligand
     RDKit          3D

 29 32  0  0  0  0  0  0  0  0999 V2000
   57.2877   32.0472   27.4799 O   0  0  0  0  0  0  0  0  0  0  0  0
   57.2939   32.1664   28.7034 C   0  0  0  0  0  0  0  0  0  0  0  0
   58.4110   32.4234   29.4829 N   0  0  0  0  0  0  0  0  0  0  0  0
   56.0192   32.0813   29.5151 C   0  0  0  0  0  0  0  0  0  0  0  0
   55.8705   30.7236   30.1543 C   0  0  1  0  0  0  0  0  0  0  0  0
   56.4441   29.7715   29.2655 O   0  0  0  0  0  0  0  0  0  0  0  0
   56.5740   28.5280   29.8215 C   0  0  0  0  0  0  0  0  0  0  0  0
   56.6202   27.4325   28.9610 C   0  0  0  0  0  0  0  0  0  0  0  0
   56.7853   26.1495   29.4841 C   0  0  0  0  0  0  0  0  0  0  0  0
   56.9195   25.9655   30.8617 C   0  0  0  0  0  0  0  0  0  0  0  0
   56.8938   27.0640   31.7216 C   0  0  0  0  0  0  0  0  0  0  0  0
   56.7191   28.3446   31.1963 C   0  0  0  0  0  0  0  0  0  0  0  0
   56.7470   29.4605   32.0404 N   0  0  0  0  0  0  0  0  0  0  0  0
   56.4464   30.7233   31.5723 C   0  0  0  0  0  0  0  0  0  0  0  0
   56.5544   31.7391   32.2556 O   0  0  0  0  0  0  0  0  0  0  0  0
   59.7281   32.5845   28.9339 C   0  0  1  0  0  0  0  0  0  0  0  0
   60.0140   34.0369   28.8044 C   0  0  0  0  0  0  0  0  0  0  0  0
   59.2684   34.9752   29.5226 C   0  0  0  0  0  0  0  0  0  0  0  0
   59.5328   36.3479   29.4066 C   0  0  0  0  0  0  0  0  0  0  0  0
   60.5468   36.8392   28.5698 C   0  0  0  0  0  0  0  0  0  0  0  0
   61.2678   35.8666   27.8506 C   0  0  0  0  0  0  0  0  0  0  0  0
   61.0181   34.4910   27.9500 C   0  0  0  0  0  0  0  0  0  0  0  0
   60.7235   31.8922   29.8800 C   0  0  0  0  0  0  0  0  0  0  0  0
   61.7462   31.0884   29.1616 C   0  0  0  0  0  0  0  0  0  0  0  0
   63.0936   31.1647   29.5235 C   0  0  0  0  0  0  0  0  0  0  0  0
   64.0648   30.4084   28.8509 C   0  0  0  0  0  0  0  0  0  0  0  0
   63.7330   29.5501   27.7912 C   0  0  0  0  0  0  0  0  0  0  0  0
   62.3686   29.5095   27.4444 C   0  0  0  0  0  0  0  0  0  0  0  0
   61.3830   30.2587   28.1014 C   0  0  0  0  0  0  0  0  0  0  0  0
  1  2  2  0
  2  4  1  0
  2  3  1  0
  5  4  1  6
  5  6  1  0
  5 14  1  0
  6  7  1  0
  7  8  2  0
  7 12  1  0
  8  9  1  0
  9 10  2  0
 10 11  1  0
 11 12  2  0
 12 13  1  0
 13 14  1  0
 14 15  2  0
  3 16  1  0
 16 23  1  1
 16 17  1  0
 23 24  1  0
 24 25  2  0
 24 29  1  0
 25 26  1  0
 26 27  2  0
 27 28  1  0
 28 29  2  0
 17 18  2  0
 17 22  1  0
 18 19  1  0
 19 20  2  0
 20 21  1  0
 21 22  2  0
M  END
>  <minimizedAffinity>  (6) 
-6.54111

>  <Compliance>  (6) 
96.0

$$$$
ligand
     RDKit          3D

 29 32  0  0  0  0  0  0  0  0999 V2000
   56.7095   32.6479   26.6101 O   0  0  0  0  0  0  0  0  0  0  0  0
   56.3617   33.3511   27.5565 C   0  0  0  0  0  0  0  0  0  0  0  0
   56.3083   32.9499   28.8823 N   0  0  0  0  0  0  0  0  0  0  0  0
   55.9782   34.8029   27.3671 C   0  0  0  0  0  0  0  0  0  0  0  0
   55.8868   35.5191   28.6911 C   0  0  1  0  0  0  0  0  0  0  0  0
   57.2126   35.6594   29.1895 O   0  0  0  0  0  0  0  0  0  0  0  0
   57.2927   36.4861   30.2768 C   0  0  0  0  0  0  0  0  0  0  0  0
   58.3675   36.3131   31.1473 C   0  0  0  0  0  0  0  0  0  0  0  0
   58.5057   37.1563   32.2505 C   0  0  0  0  0  0  0  0  0  0  0  0
   57.5807   38.1783   32.4726 C   0  0  0  0  0  0  0  0  0  0  0  0
   56.5162   38.3645   31.5900 C   0  0  0  0  0  0  0  0  0  0  0  0
   56.3754   37.5139   30.4931 C   0  0  0  0  0  0  0  0  0  0  0  0
   55.3454   37.7229   29.5691 N   0  0  0  0  0  0  0  0  0  0  0  0
   55.1000   36.8243   28.5510 C   0  0  0  0  0  0  0  0  0  0  0  0
   54.2718   37.0197   27.6643 O   0  0  0  0  0  0  0  0  0  0  0  0
   56.6638   31.6274   29.3146 C   0  0  1  0  0  0  0  0  0  0  0  0
   58.1446   31.5040   29.2959 C   0  0  0  0  0  0  0  0  0  0  0  0
   58.9397   32.3675   30.0535 C   0  0  0  0  0  0  0  0  0  0  0  0
   60.3380   32.2567   30.0420 C   0  0  0  0  0  0  0  0  0  0  0  0
   60.9982   31.2848   29.2743 C   0  0  0  0  0  0  0  0  0  0  0  0
   60.1663   30.4417   28.5125 C   0  0  0  0  0  0  0  0  0  0  0  0
   58.7680   30.5373   28.5077 C   0  0  0  0  0  0  0  0  0  0  0  0
   56.0950   31.4226   30.7288 C   0  0  0  0  0  0  0  0  0  0  0  0
   56.3349   30.0556   31.2599 C   0  0  0  0  0  0  0  0  0  0  0  0
   56.1852   28.9365   30.4368 C   0  0  0  0  0  0  0  0  0  0  0  0
   56.4107   27.6431   30.9305 C   0  0  0  0  0  0  0  0  0  0  0  0
   56.7907   27.4137   32.2619 C   0  0  0  0  0  0  0  0  0  0  0  0
   56.9178   28.5630   33.0658 C   0  0  0  0  0  0  0  0  0  0  0  0
   56.6946   29.8635   32.5933 C   0  0  0  0  0  0  0  0  0  0  0  0
  1  2  2  0
  2  4  1  0
  2  3  1  0
  5  4  1  6
  5  6  1  0
  5 14  1  0
  6  7  1  0
  7  8  2  0
  7 12  1  0
  8  9  1  0
  9 10  2  0
 10 11  1  0
 11 12  2  0
 12 13  1  0
 13 14  1  0
 14 15  2  0
  3 16  1  0
 16 23  1  1
 16 17  1  0
 23 24  1  0
 24 25  2  0
 24 29  1  0
 25 26  1  0
 26 27  2  0
 27 28  1  0
 28 29  2  0
 17 18  2  0
 17 22  1  0
 18 19  1  0
 19 20  2  0
 20 21  1  0
 21 22  2  0
M  END
>  <minimizedAffinity>  (7) 
-6.49183

>  <Compliance>  (7) 
96.0

$$$$
ligand
     RDKit          3D

 29 32  0  0  0  0  0  0  0  0999 V2000
   57.1569   32.6173   28.6518 O   0  0  0  0  0  0  0  0  0  0  0  0
   58.0905   32.1266   29.2832 C   0  0  0  0  0  0  0  0  0  0  0  0
   57.9705   31.2264   30.3306 N   0  0  0  0  0  0  0  0  0  0  0  0
   59.5312   32.4379   28.9395 C   0  0  0  0  0  0  0  0  0  0  0  0
   60.3185   31.1747   28.6977 C   0  0  1  0  0  0  0  0  0  0  0  0
   59.5682   30.3747   27.7907 O   0  0  0  0  0  0  0  0  0  0  0  0
   60.2698   29.3005   27.3154 C   0  0  0  0  0  0  0  0  0  0  0  0
   59.5450   28.1986   26.8642 C   0  0  0  0  0  0  0  0  0  0  0  0
   60.2198   27.0952   26.3406 C   0  0  0  0  0  0  0  0  0  0  0  0
   61.6134   27.1011   26.2545 C   0  0  0  0  0  0  0  0  0  0  0  0
   62.3379   28.2124   26.6871 C   0  0  0  0  0  0  0  0  0  0  0  0
   61.6609   29.3103   27.2188 C   0  0  0  0  0  0  0  0  0  0  0  0
   62.3696   30.4534   27.6052 N   0  0  0  0  0  0  0  0  0  0  0  0
   61.7469   31.4998   28.2545 C   0  0  0  0  0  0  0  0  0  0  0  0
   62.3106   32.5586   28.5218 O   0  0  0  0  0  0  0  0  0  0  0  0
   56.7042   30.7501   30.8119 C   0  0  1  0  0  0  0  0  0  0  0  0
   56.6915   29.2666   30.7267 C   0  0  0  0  0  0  0  0  0  0  0  0
   56.9977   28.6207   29.5263 C   0  0  0  0  0  0  0  0  0  0  0  0
   56.9888   27.2208   29.4381 C   0  0  0  0  0  0  0  0  0  0  0  0
   56.6723   26.4107   30.5396 C   0  0  0  0  0  0  0  0  0  0  0  0
   56.3549   27.0958   31.7284 C   0  0  0  0  0  0  0  0  0  0  0  0
   56.3553   28.4931   31.8371 C   0  0  0  0  0  0  0  0  0  0  0  0
   56.5349   31.2369   32.2610 C   0  0  0  0  0  0  0  0  0  0  0  0
   56.4113   32.7139   32.3678 C   0  0  0  0  0  0  0  0  0  0  0  0
   55.2339   33.3588   31.9806 C   0  0  0  0  0  0  0  0  0  0  0  0
   55.1092   34.7525   32.0794 C   0  0  0  0  0  0  0  0  0  0  0  0
   56.1517   35.5574   32.5643 C   0  0  0  0  0  0  0  0  0  0  0  0
   57.3279   34.8753   32.9314 C   0  0  0  0  0  0  0  0  0  0  0  0
   57.4740   33.4845   32.8380 C   0  0  0  0  0  0  0  0  0  0  0  0
  1  2  2  0
  2  4  1  0
  2  3  1  0
  5  4  1  6
  5  6  1  0
  5 14  1  0
  6  7  1  0
  7  8  2  0
  7 12  1  0
  8  9  1  0
  9 10  2  0
 10 11  1  0
 11 12  2  0
 12 13  1  0
 13 14  1  0
 14 15  2  0
  3 16  1  0
 16 23  1  1
 16 17  1  0
 23 24  1  0
 24 25  2  0
 24 29  1  0
 25 26  1  0
 26 27  2  0
 27 28  1  0
 28 29  2  0
 17 18  2  0
 17 22  1  0
 18 19  1  0
 19 20  2  0
 20 21  1  0
 21 22  2  0
M  END
>  <minimizedAffinity>  (8) 
-6.46584

>  <Compliance>  (8) 
100.0

$$$$
ligand
     RDKit          3D

 29 32  0  0  0  0  0  0  0  0999 V2000
   55.5773   31.0092   29.7668 O   0  0  0  0  0  0  0  0  0  0  0  0
   56.4115   30.4965   30.5101 C   0  0  0  0  0  0  0  0  0  0  0  0
   57.6756   31.0010   30.7729 N   0  0  0  0  0  0  0  0  0  0  0  0
   56.1148   29.2274   31.2796 C   0  0  0  0  0  0  0  0  0  0  0  0
   56.2885   28.0091   30.4081 C   0  0  1  0  0  0  0  0  0  0  0  0
   57.3512   28.2840   29.5022 O   0  0  0  0  0  0  0  0  0  0  0  0
   57.7590   27.1812   28.8024 C   0  0  0  0  0  0  0  0  0  0  0  0
   58.3853   27.3855   27.5741 C   0  0  0  0  0  0  0  0  0  0  0  0
   58.8465   26.2901   26.8431 C   0  0  0  0  0  0  0  0  0  0  0  0
   58.6958   24.9966   27.3470 C   0  0  0  0  0  0  0  0  0  0  0  0
   58.0873   24.7934   28.5861 C   0  0  0  0  0  0  0  0  0  0  0  0
   57.6186   25.8900   29.3102 C   0  0  0  0  0  0  0  0  0  0  0  0
   57.0567   25.7065   30.5786 N   0  0  0  0  0  0  0  0  0  0  0  0
   56.4659   26.7505   31.2607 C   0  0  0  0  0  0  0  0  0  0  0  0
   56.0501   26.6536   32.4131 O   0  0  0  0  0  0  0  0  0  0  0  0
   58.1699   32.2165   30.1894 C   0  0  1  0  0  0  0  0  0  0  0  0
   57.9107   33.3354   31.1323 C   0  0  0  0  0  0  0  0  0  0  0  0
   58.2435   34.6477   30.7871 C   0  0  0  0  0  0  0  0  0  0  0  0
   58.0010   35.7094   31.6712 C   0  0  0  0  0  0  0  0  0  0  0  0
   57.4211   35.5056   32.9330 C   0  0  0  0  0  0  0  0  0  0  0  0
   57.1123   34.1693   33.2528 C   0  0  0  0  0  0  0  0  0  0  0  0
   57.3487   33.0941   32.3854 C   0  0  0  0  0  0  0  0  0  0  0  0
   59.6738   32.0362   29.9224 C   0  0  0  0  0  0  0  0  0  0  0  0
   59.9576   31.3400   28.6406 C   0  0  0  0  0  0  0  0  0  0  0  0
   61.0186   30.4362   28.5421 C   0  0  0  0  0  0  0  0  0  0  0  0
   61.2923   29.7743   27.3360 C   0  0  0  0  0  0  0  0  0  0  0  0
   60.5231   29.9886   26.1818 C   0  0  0  0  0  0  0  0  0  0  0  0
   59.4717   30.9163   26.3139 C   0  0  0  0  0  0  0  0  0  0  0  0
   59.1831   31.5901   27.5084 C   0  0  0  0  0  0  0  0  0  0  0  0
  1  2  2  0
  2  4  1  0
  2  3  1  0
  5  4  1  1
  5  6  1  0
  5 14  1  0
  6  7  1  0
  7  8  2  0
  7 12  1  0
  8  9  1  0
  9 10  2  0
 10 11  1  0
 11 12  2  0
 12 13  1  0
 13 14  1  0
 14 15  2  0
  3 16  1  0
 16 23  1  1
 16 17  1  0
 23 24  1  0
 24 25  2  0
 24 29  1  0
 25 26  1  0
 26 27  2  0
 27 28  1  0
 28 29  2  0
 17 18  2  0
 17 22  1  0
 18 19  1  0
 19 20  2  0
 20 21  1  0
 21 22  2  0
M  END
>  <minimizedAffinity>  (9) 
-6.43111

>  <Compliance>  (9) 
96.0

$$$$
